35

C          2.38310       -2.01604       -0.82361
H          3.38400       -1.80580       -1.20818
H          2.44604       -2.87318       -0.14769
H          1.72504       -2.28237       -1.64637
C         -0.57623       -1.79746        0.05551
O         -0.47582       -2.54961       -0.87645
O         -1.69585       -1.70514        0.81657
C         -2.84012       -2.43366        0.33612
H         -2.62543       -3.50226        0.28859
H         -3.11813       -2.07470       -0.65608
H         -3.63334       -2.23501        1.05391
C          1.05672        2.63656       -0.72519
H          1.98084        2.98365       -1.19168
H          0.29744        2.53831       -1.50323
H          0.72699        3.38770       -0.00317
C         -1.21327        0.96990       -0.07677
O         -1.57720        0.49442       -1.12327
O         -1.89143        1.94548        0.57034
C         -3.09333        2.40773       -0.07301
H         -2.86046        2.85517       -1.04067
H         -3.51605        3.15013        0.60029
H         -3.78899        1.58031       -0.21958
C          0.06118        0.63828        0.66607
C          0.48264       -0.87056        0.63556
C          1.30152        1.31111       -0.03803
C          2.47024        1.28634        0.97918
C          2.87218       -0.20996        0.95099
C          1.87058       -0.80015       -0.08286
O          1.68965        0.31021       -0.98511
H         -0.04726        1.00553        1.68489
H          0.61264       -1.21537        1.66468
H          3.28025        1.92430        0.61997
H          2.17302        1.64546        1.96637
H          3.89069       -0.33873        0.58106
H          2.80652       -0.70092        1.92428
