30

C        -0.54444000        -0.68370000        -0.06689000
C        -0.55709000        +0.71878000        +0.05493000
C        -1.74320000        -1.41616000        -0.12552000
C        -2.93952000        -0.70056000        -0.05285000
C        -2.95313000        +0.68255000        +0.06934000
C        -1.77161000        +1.42404000        +0.12810000
H        -3.90354000        +1.20325000        +0.11710000
H        -3.87892000        -1.24211000        -0.08988000
C        -1.83960000        +2.92746000        +0.24839000
H        -1.24214000        +3.42352000        -0.52065000
H        -1.45503000        +3.26427000        +1.21284000
H        -2.87211000        +3.26623000        +0.14638000
H        -1.73878000        -2.44393000        -0.21875000
H        +0.35825000        -1.18166000        -0.11386000
H        +0.33551000        +1.23549000        +0.09097000
C        -0.49627000        -1.29404000        +6.90628000
C        -0.50892000        +0.10844000        +7.02810000
C        -1.69503000        -2.02650000        +6.84765000
C        -2.89135000        -1.31090000        +6.92032000
C        -2.90496000        +0.07221000        +7.04251000
C        -1.72344000        +0.81370000        +7.10127000
H        -3.85537000        +0.59291000        +7.09027000
H        -3.83075000        -1.85245000        +6.88329000
C        -1.79143000        +2.31712000        +7.22156000
H        -1.19397000        +2.81318000        +6.45252000
H        -1.40686000        +2.65393000        +8.18601000
H        -2.82394000        +2.65589000        +7.11955000
H        -1.69061000        -3.05427000        +6.75442000
H        +0.40642000        -1.79200000        +6.85931000
H        +0.38368000        +0.62515000        +7.06414000
