54

C        -0.54444000        -0.68370000        -0.06689000
C        -0.55709000        +0.71878000        +0.05493000
C        +0.74969000        -1.43776000        -0.09374000
C        +0.72843000        +1.48436000        +0.06598000
O        +1.53645000        -1.09176000        +0.94813000
O        +1.04702000        -2.28405000        -0.90088000
O        +1.53784000        +1.08301000        -0.93877000
O        +1.01035000        +2.37097000        +0.83478000
C        +2.83449000        +1.70121000        -0.99358000
C        +2.82316000        -1.73208000        +1.00475000
C        -1.74320000        -1.41616000        -0.12552000
C        -2.93952000        -0.70056000        -0.05285000
C        -2.95313000        +0.68255000        +0.06934000
C        -1.77161000        +1.42404000        +0.12810000
H        +2.73835000        +2.77989000        -1.12464000
H        +2.70778000        -2.81319000        +1.09555000
H        -3.90354000        +1.20325000        +0.11710000
H        +3.38998000        +1.50093000        -0.07544000
H        +3.33184000        +1.25269000        -1.85067000
H        +3.31095000        -1.32281000        +1.88650000
H        +3.39889000        -1.50934000        +0.10459000
H        -3.87892000        -1.24211000        -0.08988000
C        -1.83960000        +2.92746000        +0.24839000
H        -1.24214000        +3.42352000        -0.52065000
H        -1.45503000        +3.26427000        +1.21284000
H        -2.87211000        +3.26623000        +0.14638000
H        -1.73878000        -2.44393000        -0.21875000
C        -0.52035000        -0.98887000        +3.41970000
C        -0.53300000        +0.41361000        +3.54152000
C        +0.77378000        -1.74293000        +3.39285000
C        +0.75252000        +1.17919000        +3.55257000
O        +1.56054000        -1.39693000        +4.43472000
O        +1.07111000        -2.58922000        +2.58571000
O        +1.56193000        +0.77784000        +2.54782000
O        +1.03444000        +2.06580000        +4.32137000
C        +2.85858000        +1.39604000        +2.49301000
C        +2.84725000        -2.03725000        +4.49134000
C        -1.71911000        -1.72133000        +3.36107000
C        -2.91543000        -1.00573000        +3.43374000
C        -2.92904000        +0.37738000        +3.55593000
C        -1.74752000        +1.11887000        +3.61469000
H        +2.76244000        +2.47472000        +2.36195000
H        +2.73187000        -3.11836000        +4.58214000
H        -3.87945000        +0.89808000        +3.60369000
H        +3.41407000        +1.19576000        +3.41115000
H        +3.35593000        +0.94752000        +1.63592000
H        +3.33504000        -1.62798000        +5.37309000
H        +3.42298000        -1.81451000        +3.59118000
H        -3.85483000        -1.54728000        +3.39671000
C        -1.81551000        +2.62229000        +3.73498000
H        -1.21805000        +3.11835000        +2.96594000
H        -1.43094000        +2.95910000        +4.69943000
H        -2.84802000        +2.96106000        +3.63297000
H        -1.71469000        -2.74910000        +3.26784000
