17

C          0.20238        1.04766        0.59128
C          0.63819       -0.38392        1.03507
C          1.32502        1.40342       -0.40773
C          2.63024        1.71632        0.35656
C          3.06844        0.28546        0.80025
C          1.92879       -0.57154        0.20725
O          1.61715        0.12844       -1.01410
H          3.36771        2.16806       -0.30914
H          2.46905        2.39751        1.19495
H          4.02649        0.00980        0.35668
H          3.15140        0.17666        1.88393
H          1.05332        2.11810       -1.18255
H          2.19020       -1.60239       -0.02473
H          0.81538       -0.46660        2.10960
H         -0.10758       -1.13032        0.75591
H         -0.76622        1.02844        0.08894
H          0.14243        1.75630        1.41989
