17

C          0.22270        1.04488        0.58595
C          0.62626       -0.41353        0.99871
C          1.33008        1.39974       -0.43491
C          2.63070        1.71700        0.32855
C          3.04336        0.29351        0.80300
C          1.94423       -0.59299        0.15262
O          1.62840        0.13663       -1.04376
H          3.37234        2.13782       -0.35195
H          2.48236        2.42488        1.14651
H          4.02182        0.00994        0.41161
H          3.07359        0.18738        1.88928
H          1.03270        2.19943       -1.08064
H          2.24339       -1.61496        0.04786
H          0.81693       -0.48905        2.04887
H         -0.12524       -1.15356        0.81843
H         -0.74673        1.06811        0.13365
H          0.15552        1.72617        1.40828
