20

C          0.20553        1.04146        0.58269
C          0.65000       -0.38925        1.00740
C          1.32948        1.41743       -0.40725
C          2.62919        1.72756        0.36622
C          3.06783        0.29650        0.79479
C          1.94651       -0.57906        0.17708
O          1.63056        0.15702       -1.03120
H          3.36767        2.18673       -0.29348
H          2.46319        2.40269        1.20873
H          4.03298        0.02999        0.35944
H          3.13919        0.17160        1.87760
H          1.05575        2.14422       -1.17046
C          2.32428       -2.00466       -0.15206
H          3.19961       -2.02906       -0.80581
H          1.50021       -2.51513       -0.65630
H          2.56254       -2.55434        0.76296
H         -0.76025        1.02051        0.07473
H          0.13481        1.74083        1.41846
H          0.82947       -0.48542        2.08050
H         -0.09122       -1.13848        0.72072
