15

C         -0.55335       -0.66344       -0.04955
C         -0.58369        0.72363        0.07143
C         -1.74416       -1.38805       -0.12104
C         -2.96100       -0.71253       -0.06974
C         -2.98560        0.67733        0.05133
C         -1.80096        1.41593        0.12202
H         -3.93869        1.19496        0.09042
H         -3.89285       -1.26490       -0.12448
C         -1.82561        2.92062        0.24749
H         -1.30124        3.39464       -0.58804
H         -1.33421        3.24931        1.16844
H         -2.84892        3.30103        0.25949
H         -1.72216       -2.46788       -0.21620
H          0.39889       -1.18111       -0.08841
H          0.34820        1.27792        0.12648
