18

C         -0.54444       -0.68370       -0.06689
C         -0.55709        0.71878        0.05493
C         -1.74320       -1.41616       -0.12552
C         -2.93952       -0.70056       -0.05285
C         -2.95313        0.68255        0.06934
C         -1.77161        1.42404        0.12810
H         -3.90354        1.20325        0.11710
H         -3.87892       -1.24211       -0.08988
C         -1.83960        2.92746        0.24839
C         -1.78103       -2.92226       -0.24590
H         -1.39752       -3.25223       -1.21323
H         -2.80572       -3.28175       -0.13627
H         -1.16958       -3.40777        0.51926
H         -1.24214        3.42352       -0.52065
H         -1.45503        3.26427        1.21284
H         -2.87211        3.26623        0.14638
H          0.35825       -1.18166       -0.11386
H          0.33551        1.23549        0.09097
