29

C          0.22270        1.04488        0.58595
C          0.62626       -0.41353        0.99871
C         -1.18200        1.23223        0.04377
C         -0.37457       -1.51643        0.72333
O         -2.09172        0.78832        0.93966
O         -1.47336        1.75939       -0.99882
O         -0.91364       -1.42792       -0.50620
O         -0.62208       -2.40877        1.49911
C         -1.86134       -2.44741       -0.86560
C         -3.47068        0.87492        0.53920
C          1.33008        1.39974       -0.43491
C          2.63070        1.71700        0.32855
C          3.04336        0.29351        0.80300
C          1.94423       -0.59299        0.15262
O          1.62840        0.13663       -1.04376
H          0.27811        1.68786        1.46900
H          0.83923       -0.48042        2.06408
H         -2.68749       -2.46677       -0.15296
H         -3.76076        1.91522        0.38406
H          3.37234        2.13782       -0.35195
H          2.48236        2.42488        1.14651
H          4.02182        0.00994        0.41161
H          3.07359        0.18738        1.88928
H         -2.21148       -2.17765       -1.85937
H         -1.38062       -3.42697       -0.88096
H         -4.03855        0.43623        1.35671
H         -3.63120        0.31700       -0.38495
H          1.03270        2.19943       -1.08064
H          2.24339       -1.61496        0.04786
