24

C          0.80938       -0.67687        0.11234
C          0.81283        0.71370       -0.09039
C         -0.43923       -1.50105        0.15492
C         -0.43297        1.54085       -0.10880
O         -1.29982       -1.14359       -0.81954
O         -0.62933       -2.41776        0.91703
O         -1.31150        1.13134        0.82854
O         -0.61259        2.49385       -0.82809
C         -2.57363        1.82034        0.86046
C         -2.55327       -1.84928       -0.84773
C          2.02089       -1.36123        0.22174
C          3.22888       -0.68157        0.09702
C          3.23229        0.69171       -0.14044
C          2.02852        1.38475       -0.23148
H         -2.42411        2.88666        1.03426
H         -2.38793       -2.91935       -0.98013
H          4.16997        1.22449       -0.24697
H         -3.10439        1.68138       -0.08344
H         -3.12689        1.37087        1.68202
H         -3.09724       -1.43732       -1.69475
H         -3.10243       -1.68355        0.08111
H          4.16321       -1.22490        0.17746
H          2.01551        2.45451       -0.40018
H          2.00142       -2.43108        0.39056
