32

C          0.16209        1.18464        0.43655
C          0.56565       -0.27377        0.84931
C         -1.24261        1.37199       -0.10563
C         -0.43518       -1.37667        0.57393
O         -2.15233        0.92808        0.79026
O         -1.53397        1.89915       -1.14822
O         -0.97425       -1.28816       -0.65560
O         -0.68269       -2.26901        1.34971
C         -1.92195       -2.30765       -1.01500
C         -3.53129        1.01468        0.38980
C          1.26947        1.53950       -0.58431
C          2.57009        1.85676        0.17915
C          2.98275        0.43327        0.65360
C          1.88362       -0.45323        0.00322
O          1.56779        0.27639       -1.19316
H          0.21750        1.82762        1.31960
H          0.77862       -0.34066        1.91468
H         -2.74810       -2.32701       -0.30236
H         -3.82137        2.05498        0.23466
H          3.31173        2.27758       -0.50135
H          2.42175        2.56464        0.99711
H          3.96121        0.14970        0.26221
H          3.01298        0.32714        1.73988
H         -2.27209       -2.03789       -2.00877
H         -1.44123       -3.28721       -1.03036
H         -4.09916        0.57599        1.20731
H         -3.69181        0.45676       -0.53435
H          0.96089        2.25101       -1.34490
C          2.29389       -1.87291       -0.31752
H          3.20250       -1.86702       -0.92306
H          2.48929       -2.43083        0.60139
H          1.51274       -2.38920       -0.87812
