35

C      0.50722444      0.86339421      0.69431186
C      0.18679344     -0.66360648      0.69642815
C     -0.46148733      1.68264795     -0.14391219
C     -1.26672519     -0.98577580      0.38378302
O     -0.97774375      2.70098491      0.57908858
O     -0.70425028      1.50104449     -1.31628461
O     -1.44622808     -2.28471814      0.07149714
O     -2.18753216     -0.20746201      0.51532524
C     -2.81049310     -2.67568583     -0.16615682
C     -1.95486443      3.49038795     -0.11784688
C      1.92437656      0.85413654      0.03256308
C      2.91321077      0.15707864      1.01342552
C      2.59189720     -1.34326213      0.77532176
C      1.37258773     -1.24437592     -0.17967910
O      1.75081112     -0.12799423     -0.99675451
H      0.52892330      1.27726117      1.70391101
H      0.30132881     -1.04795668      1.71749523
H     -3.23959137     -2.08327957     -0.97844249
H     -2.77830032      2.85388063     -0.45326213
H      3.94487710      0.39659182      0.73988813
H      2.76164763      0.47650012      2.04980065
H      3.41409762     -1.84249026      0.25397102
H      2.38101353     -1.90381656      1.69168658
H     -2.76745156     -3.73088912     -0.43784779
H     -3.41342007     -2.53241108      0.73507520
H     -1.50810567      3.98172490     -0.98737184
H     -2.30564509      4.22943571      0.60367194
C      1.13422595     -2.45204296     -1.06012051
H      2.05632514     -2.67686942     -1.60582405
H      0.84742319     -3.32220777     -0.46509151
H      0.33950444     -2.25221599     -1.78162473
C      2.40514872      2.16507029     -0.55322829
H      3.38813604      2.02736126     -1.01441965
H      1.71218509      2.52160715     -1.31924647
H      2.49252055      2.92464222      0.23141948
