32

 C   -0.435180000000   -1.376670000000    0.573930000000
 O   -0.682690000000   -2.269010000000    1.349710000000
 O   -0.974250000000   -1.288160000000   -0.655600000000
 C   -1.921950000000   -2.307650000000   -1.015000000000
 H   -2.272090000000   -2.037890000000   -2.008770000000
 H   -1.441230000000   -3.287210000000   -1.030360000000
 H   -2.748100000000   -2.327010000000   -0.302360000000
 C   -1.242610000000    1.371990000000   -0.105630000000
 O   -1.533970000000    1.899150000000   -1.148220000000
 O   -2.152330000000    0.928080000000    0.790260000000
 C   -3.531290000000    1.014680000000    0.389800000000
 H   -3.691810000000    0.456760000000   -0.534350000000
 H   -3.821370000000    2.054980000000    0.234660000000
 H   -4.099160000000    0.575990000000    1.207310000000
 C    2.293890000000   -1.872910000000   -0.317520000000
 H    3.202500000000   -1.867020000000   -0.923060000000
 H    2.489290000000   -2.430830000000    0.601390000000
 H    1.512740000000   -2.389200000000   -0.878120000000
 H    0.960890000000    2.251010000000   -1.344900000000
 C    0.162090000000    1.184640000000    0.436550000000
 C    0.565650000000   -0.273770000000    0.849310000000
 C    1.269470000000    1.539500000000   -0.584310000000
 C    2.570090000000    1.856760000000    0.179150000000
 C    2.982750000000    0.433270000000    0.653600000000
 C    1.883620000000   -0.453230000000    0.003220000000
 O    1.567790000000    0.276390000000   -1.193160000000
 H    0.217500000000    1.827620000000    1.319600000000
 H    0.778620000000   -0.340660000000    1.914680000000
 H    3.311730000000    2.277580000000   -0.501350000000
 H    2.421750000000    2.564640000000    0.997110000000
 H    3.961210000000    0.149700000000    0.262210000000
 H    3.012980000000    0.327140000000    1.739880000000
