27

C         -3.28435       -0.44985       -0.11159
H         -4.05494       -1.20225        0.06389
H         -3.44468       -0.02014       -1.10364
H         -3.42515        0.35288        0.61764
C         -0.93256        1.21620       -0.27123
O         -1.22711        1.72316       -1.32432
O         -0.82809        1.87798        0.89302
C         -0.90313        3.31363        0.80447
H         -1.85300        3.62249        0.36564
H         -0.07924        3.68605        0.19416
H         -0.81675        3.67112        1.82804
H          1.62267       -2.68116        0.24959
C          1.73790        0.00516       -0.09870
O          1.72605        1.19282       -0.32983
O          2.87820       -0.69687        0.07094
C          4.10114        0.04916       -0.05920
H          4.16549        0.50520       -1.04813
H          4.89777       -0.67789        0.08191
H          4.15401        0.83005        0.70091
C          0.52342       -0.85140        0.01899
C         -0.74989       -0.26484       -0.07041
C          0.63920       -2.23704        0.18636
C         -0.50036       -3.02574        0.26541
C         -1.75889       -2.43773        0.17149
C         -1.90684       -1.05914       -0.00101
H         -2.64746       -3.05726        0.23328
H         -0.41097       -4.09793        0.39739
