30

C        -0.58182000        -1.03738000        +4.23406000
C        -0.61216000        +0.34969000        +4.35504000
C        -1.77263000        -1.76199000        +4.16257000
C        -2.98947000        -1.08647000        +4.21387000
C        -3.01407000        +0.30339000        +4.33494000
C        -1.82943000        +1.04199000        +4.40563000
H        -3.96716000        +0.82102000        +4.37403000
H        -3.92132000        -1.63884000        +4.15913000
C        -1.85408000        +2.54668000        +4.53110000
H        -1.32971000        +3.02070000        +3.69557000
H        -1.36268000        +2.87537000        +5.45205000
H        -2.87739000        +2.92709000        +4.54310000
H        -1.75063000        -2.84182000        +4.06741000
H        +0.37042000        -1.55505000        +4.19520000
H        +0.31973000        +0.90398000        +4.41009000
C        -0.55335000        -0.66344000        -0.04955000
C        -0.58369000        +0.72363000        +0.07143000
C        -1.74416000        -1.38805000        -0.12104000
C        -2.96100000        -0.71253000        -0.06974000
C        -2.98560000        +0.67733000        +0.05133000
C        -1.80096000        +1.41593000        +0.12202000
H        -3.93869000        +1.19496000        +0.09042000
H        -3.89285000        -1.26490000        -0.12448000
C        -1.82561000        +2.92062000        +0.24749000
H        -1.30124000        +3.39464000        -0.58804000
H        -1.33421000        +3.24931000        +1.16844000
H        -2.84892000        +3.30103000        +0.25949000
H        -1.72216000        -2.46788000        -0.21620000
H        +0.39889000        -1.18111000        -0.08841000
H        +0.34820000        +1.27792000        +0.12648000
