30

C        -0.54444000        -0.68370000        -0.06689000
C        -0.55709000        +0.71878000        +0.05493000
C        -1.74320000        -1.41616000        -0.12552000
C        -2.93952000        -0.70056000        -0.05285000
C        -2.95313000        +0.68255000        +0.06934000
C        -1.77161000        +1.42404000        +0.12810000
H        -3.90354000        +1.20325000        +0.11710000
H        -3.87892000        -1.24211000        -0.08988000
C        -1.83960000        +2.92746000        +0.24839000
H        -1.24214000        +3.42352000        -0.52065000
H        -1.45503000        +3.26427000        +1.21284000
H        -2.87211000        +3.26623000        +0.14638000
H        -1.73878000        -2.44393000        -0.21875000
H        +0.35825000        -1.18166000        -0.11386000
H        +0.33551000        +1.23549000        +0.09097000
C        -0.88622000        -1.39868000        +9.90166000
C        -0.89887000        +0.00380000       +10.02348000
C        -2.08498000        -2.13114000        +9.84303000
C        -3.28130000        -1.41554000        +9.91570000
C        -3.29491000        -0.03243000       +10.03789000
C        -2.11339000        +0.70906000       +10.09665000
H        -4.24532000        +0.48827000       +10.08565000
H        -4.22070000        -1.95709000        +9.87867000
C        -2.18138000        +2.21248000       +10.21694000
H        -1.58392000        +2.70854000        +9.44790000
H        -1.79681000        +2.54929000       +11.18139000
H        -3.21389000        +2.55125000       +10.11493000
H        -2.08056000        -3.15891000        +9.74980000
H        +0.01647000        -1.89664000        +9.85469000
H        -0.00627000        +0.52051000       +10.05952000
