30

C        -0.57917000        -1.00260000        +3.83559000
C        -0.60951000        +0.38447000        +3.95657000
C        -1.76998000        -1.72721000        +3.76410000
C        -2.98682000        -1.05169000        +3.81540000
C        -3.01142000        +0.33817000        +3.93647000
C        -1.82678000        +1.07677000        +4.00716000
H        -3.96451000        +0.85580000        +3.97556000
H        -3.91867000        -1.60406000        +3.76066000
C        -1.85143000        +2.58146000        +4.13263000
H        -1.32706000        +3.05548000        +3.29710000
H        -1.36003000        +2.91015000        +5.05358000
H        -2.87474000        +2.96187000        +4.14463000
H        -1.74798000        -2.80704000        +3.66894000
H        +0.37307000        -1.52027000        +3.79673000
H        +0.32238000        +0.93876000        +4.01162000
C        -0.55335000        -0.66344000        -0.04955000
C        -0.58369000        +0.72363000        +0.07143000
C        -1.74416000        -1.38805000        -0.12104000
C        -2.96100000        -0.71253000        -0.06974000
C        -2.98560000        +0.67733000        +0.05133000
C        -1.80096000        +1.41593000        +0.12202000
H        -3.93869000        +1.19496000        +0.09042000
H        -3.89285000        -1.26490000        -0.12448000
C        -1.82561000        +2.92062000        +0.24749000
H        -1.30124000        +3.39464000        -0.58804000
H        -1.33421000        +3.24931000        +1.16844000
H        -2.84892000        +3.30103000        +0.25949000
H        -1.72216000        -2.46788000        -0.21620000
H        +0.39889000        -1.18111000        -0.08841000
H        +0.34820000        +1.27792000        +0.12648000
