36

C        -0.54444000        -0.68370000        -0.06689000
C        -0.55709000        +0.71878000        +0.05493000
C        -1.74320000        -1.41616000        -0.12552000
C        -2.93952000        -0.70056000        -0.05285000
C        -2.95313000        +0.68255000        +0.06934000
C        -1.77161000        +1.42404000        +0.12810000
H        -3.90354000        +1.20325000        +0.11710000
H        -3.87892000        -1.24211000        -0.08988000
C        -1.83960000        +2.92746000        +0.24839000
C        -1.78103000        -2.92226000        -0.24590000
H        -1.39752000        -3.25223000        -1.21323000
H        -2.80572000        -3.28175000        -0.13627000
H        -1.16958000        -3.40777000        +0.51926000
H        -1.24214000        +3.42352000        -0.52065000
H        -1.45503000        +3.26427000        +1.21284000
H        -2.87211000        +3.26623000        +0.14638000
H        +0.35825000        -1.18166000        -0.11386000
H        +0.33551000        +1.23549000        +0.09097000
C        -2.09871000        +0.15878000        +4.71688000
C        -2.11136000        +1.56126000        +4.83870000
C        -3.29747000        -0.57368000        +4.65825000
C        -4.49379000        +0.14192000        +4.73092000
C        -4.50740000        +1.52503000        +4.85311000
C        -3.32588000        +2.26652000        +4.91187000
H        -5.45781000        +2.04573000        +4.90087000
H        -5.43319000        -0.39963000        +4.69389000
C        -3.39387000        +3.76994000        +5.03216000
C        -3.33530000        -2.07978000        +4.53787000
H        -2.95179000        -2.40975000        +3.57054000
H        -4.35999000        -2.43927000        +4.64750000
H        -2.72385000        -2.56529000        +5.30303000
H        -2.79641000        +4.26600000        +4.26312000
H        -3.00930000        +4.10675000        +5.99661000
H        -4.42638000        +4.10871000        +4.93015000
H        -1.19602000        -0.33918000        +4.66991000
H        -1.21876000        +2.07797000        +4.87474000
