36

C        -0.54926000        -1.04867000        +3.80651000
C        -0.56323000        +0.33609000        +3.94003000
C        -1.74105000        -1.78301000        +3.74943000
C        -2.94300000        -1.07699000        +3.82584000
C        -2.95716000        +0.31166000        +3.95914000
C        -1.76985000        +1.04376000        +4.01647000
H        -3.90850000        +0.83130000        +4.01789000
H        -3.88336000        -1.61785000        +3.78173000
C        -1.78018000        +2.54899000        +4.13144000
C        -1.72204000        -3.28900000        +3.63555000
H        -0.99632000        -3.62496000        +2.88960000
H        -2.70184000        -3.67911000        +3.35090000
H        -1.44685000        -3.75251000        +4.58920000
H        -1.50478000        +3.01753000        +3.18048000
H        -1.06691000        +2.89680000        +4.88403000
H        -2.76937000        +2.92034000        +4.40807000
H        +0.40129000        -1.57019000        +3.74680000
H        +0.37704000        +0.87724000        +3.98427000
C        -0.58454000        -0.67556000        -0.07544000
C        -0.59851000        +0.70920000        +0.05808000
C        -1.77633000        -1.40990000        -0.13252000
C        -2.97828000        -0.70388000        -0.05611000
C        -2.99244000        +0.68477000        +0.07719000
C        -1.80513000        +1.41687000        +0.13452000
H        -3.94378000        +1.20441000        +0.13594000
H        -3.91864000        -1.24474000        -0.10022000
C        -1.81546000        +2.92210000        +0.24949000
C        -1.75732000        -2.91589000        -0.24640000
H        -1.03160000        -3.25185000        -0.99235000
H        -2.73712000        -3.30600000        -0.53105000
H        -1.48213000        -3.37940000        +0.70725000
H        -1.54006000        +3.39064000        -0.70147000
H        -1.10219000        +3.26991000        +1.00208000
H        -2.80465000        +3.29345000        +0.52612000
H        +0.36601000        -1.19708000        -0.13515000
H        +0.34176000        +1.25035000        +0.10232000
