60

C        -0.54444000        -0.68370000        -0.06689000
C        -0.55709000        +0.71878000        +0.05493000
C        +0.74969000        -1.43776000        -0.09374000
C        +0.72843000        +1.48436000        +0.06598000
O        +1.53645000        -1.09176000        +0.94813000
O        +1.04702000        -2.28405000        -0.90088000
O        +1.53784000        +1.08301000        -0.93877000
O        +1.01035000        +2.37097000        +0.83478000
C        +2.83449000        +1.70121000        -0.99358000
C        +2.82316000        -1.73208000        +1.00475000
C        -1.74320000        -1.41616000        -0.12552000
C        -2.93952000        -0.70056000        -0.05285000
C        -2.95313000        +0.68255000        +0.06934000
C        -1.77161000        +1.42404000        +0.12810000
H        +2.73835000        +2.77989000        -1.12464000
H        +2.70778000        -2.81319000        +1.09555000
H        -3.90354000        +1.20325000        +0.11710000
H        +3.38998000        +1.50093000        -0.07544000
H        +3.33184000        +1.25269000        -1.85067000
H        +3.31095000        -1.32281000        +1.88650000
H        +3.39889000        -1.50934000        +0.10459000
H        -3.87892000        -1.24211000        -0.08988000
C        -1.83960000        +2.92746000        +0.24839000
C        -1.78103000        -2.92226000        -0.24590000
H        -1.39752000        -3.25223000        -1.21323000
H        -2.80572000        -3.28175000        -0.13627000
H        -1.16958000        -3.40777000        +0.51926000
H        -1.24214000        +3.42352000        -0.52065000
H        -1.45503000        +3.26427000        +1.21284000
H        -2.87211000        +3.26623000        +0.14638000
C        -0.51554000        -1.04990000        +4.11701000
C        -0.52819000        +0.35258000        +4.23883000
C        +0.77859000        -1.80396000        +4.09016000
C        +0.75733000        +1.11816000        +4.24988000
O        +1.56535000        -1.45796000        +5.13203000
O        +1.07592000        -2.65025000        +3.28302000
O        +1.56674000        +0.71681000        +3.24513000
O        +1.03925000        +2.00477000        +5.01868000
C        +2.86339000        +1.33501000        +3.19032000
C        +2.85206000        -2.09828000        +5.18865000
C        -1.71430000        -1.78236000        +4.05838000
C        -2.91062000        -1.06676000        +4.13105000
C        -2.92423000        +0.31635000        +4.25324000
C        -1.74271000        +1.05784000        +4.31200000
H        +2.76725000        +2.41369000        +3.05926000
H        +2.73668000        -3.17939000        +5.27945000
H        -3.87464000        +0.83705000        +4.30100000
H        +3.41888000        +1.13473000        +4.10846000
H        +3.36074000        +0.88649000        +2.33323000
H        +3.33985000        -1.68901000        +6.07040000
H        +3.42779000        -1.87554000        +4.28849000
H        -3.85002000        -1.60831000        +4.09402000
C        -1.81070000        +2.56126000        +4.43229000
C        -1.75213000        -3.28846000        +3.93800000
H        -1.36862000        -3.61843000        +2.97067000
H        -2.77682000        -3.64795000        +4.04763000
H        -1.14068000        -3.77397000        +4.70316000
H        -1.21324000        +3.05732000        +3.66325000
H        -1.42613000        +2.89807000        +5.39674000
H        -2.84321000        +2.90003000        +4.33028000
