32
1101.pdb
C          0.19200        1.18300        0.57000
C          0.41800       -0.36100        0.68600
C         -1.14300        1.61200       -0.01600
C         -0.63700       -1.21100        0.01200
O         -0.94745        2.25454       -1.19041
O         -2.23196        1.35984        0.44382
O         -0.79400       -2.38000        0.67700
O         -1.22200       -0.94800       -1.01600
C         -1.70900       -3.30700        0.06800
C         -2.12957        2.83290       -1.76824
C          1.39700        1.61300       -0.30200
C          2.66800        1.64800        0.56900
C          2.89800        0.12700        0.80200
C          1.78700       -0.50300       -0.08600
O          1.62600        0.46500       -1.13100
H          0.23900        1.62800        1.57100
H          0.51400       -0.69000        1.72200
H         -1.35600       -3.59700       -0.92600
H         -2.53732        3.59078       -1.09246
H          3.49300        2.08800        0.00200
H          2.54500        2.22000        1.49400
H          3.88300       -0.19200        0.44700
H          2.81000       -0.17200        1.85100
H         -1.73800       -4.17100        0.73200
H         -2.70100       -2.85800       -0.02900
H         -2.88718        2.06610       -1.95025
H         -1.80652        3.28710       -2.70616
H          1.20200        2.48300       -0.92500
C          2.09900       -1.86600       -0.66700
H          3.05500       -1.83000       -1.19600
H          2.16200       -2.61800        0.12500
H          1.32400       -2.16600       -1.37900
