32
1101.pdb
C          0.19200        1.18300        0.57000
C          0.41800       -0.36100        0.68600
C         -1.14300        1.61200       -0.01600
C         -0.63700       -1.21100        0.01200
O         -1.42211        0.87737       -1.11726
O         -1.89411        2.43140        0.45862
O         -1.86426       -0.91014        0.49857
O         -0.44048       -2.09345       -0.79475
C         -2.93480       -1.72605       -0.00705
C         -2.59346        1.29111       -1.84013
C          1.39700        1.61300       -0.30200
C          2.66800        1.64800        0.56900
C          2.89800        0.12700        0.80200
C          1.78700       -0.50300       -0.08600
O          1.62600        0.46500       -1.13100
H          0.23900        1.62800        1.57100
H          0.51400       -0.69000        1.72200
H         -2.77761       -2.77465        0.26214
H         -2.45913        2.31376       -2.20548
H          3.49300        2.08800        0.00200
H          2.54500        2.22000        1.49400
H          3.88300       -0.19200        0.44700
H          2.81000       -0.17200        1.85100
H         -3.84252       -1.34229        0.45880
H         -2.99408       -1.64828       -1.09587
H         -3.47881        1.24956       -1.20019
H         -2.68631        0.59348       -2.67381
H          1.20200        2.48300       -0.92500
C          2.09900       -1.86600       -0.66700
H          3.05500       -1.83000       -1.19600
H          2.16200       -2.61800        0.12500
H          1.32400       -2.16600       -1.37900
