32
1101.pdb
C          0.19200        1.18300        0.57000
C          0.41800       -0.36100        0.68600
C         -1.14300        1.61200       -0.01600
C         -0.63700       -1.21100        0.01200
O         -2.15639        1.04608        0.67906
O         -1.29950        2.40011       -0.91891
O         -0.89798       -0.73885       -1.22993
O         -1.23583       -2.13988        0.50876
C         -1.95570       -1.41807       -1.92802
C         -3.46542        1.26561        0.12766
C          1.39700        1.61300       -0.30200
C          2.66800        1.64800        0.56900
C          2.89800        0.12700        0.80200
C          1.78700       -0.50300       -0.08600
O          1.62600        0.46500       -1.13100
H          0.23900        1.62800        1.57100
H          0.51400       -0.69000        1.72200
H         -2.90054       -1.31492       -1.38636
H         -3.52318        0.82418       -0.87191
H          3.49300        2.08800        0.00200
H          2.54500        2.22000        1.49400
H          3.88300       -0.19200        0.44700
H          2.81000       -0.17200        1.85100
H         -2.01910       -0.93834       -2.90479
H         -1.72485       -2.48157       -2.03168
H         -3.68487        2.33465        0.06362
H         -4.15844        0.76908        0.80849
H          1.20200        2.48300       -0.92500
C          2.09900       -1.86600       -0.66700
H          3.05500       -1.83000       -1.19600
H          2.16200       -2.61800        0.12500
H          1.32400       -2.16600       -1.37900
