32
1101.pdb
C          0.19200        1.18300        0.57000
C          0.41800       -0.36100        0.68600
C         -1.14300        1.61200       -0.01600
C         -0.63700       -1.21100        0.01200
O         -1.18293        1.32178       -1.33680
O         -2.07216        2.07476        0.60316
O         -1.55950       -0.42439       -0.59106
O         -0.71720       -2.41944        0.04952
C         -2.66276       -1.12890       -1.18595
C         -2.34296        1.81191       -2.02956
C          1.39700        1.61300       -0.30200
C          2.66800        1.64800        0.56900
C          2.89800        0.12700        0.80200
C          1.78700       -0.50300       -0.08600
O          1.62600        0.46500       -1.13100
H          0.23900        1.62800        1.57100
H          0.51400       -0.69000        1.72200
H         -3.22162       -1.67973       -0.42370
H         -2.36991        2.90450       -1.97625
H          3.49300        2.08800        0.00200
H          2.54500        2.22000        1.49400
H          3.88300       -0.19200        0.44700
H          2.81000       -0.17200        1.85100
H         -3.28949       -0.36263       -1.64231
H         -2.30429       -1.83650       -1.93820
H         -3.25766        1.40614       -1.58937
H         -2.23092        1.47945       -3.06264
H          1.20200        2.48300       -0.92500
C          2.09900       -1.86600       -0.66700
H          3.05500       -1.83000       -1.19600
H          2.16200       -2.61800        0.12500
H          1.32400       -2.16600       -1.37900
