32
1101.pdb
C          0.19200        1.18300        0.57000
C          0.41800       -0.36100        0.68600
C         -1.14300        1.61200       -0.01600
C         -0.63700       -1.21100        0.01200
O         -1.31256        2.94437        0.14639
O         -1.91733        0.89915       -0.61023
O         -1.85885       -0.94140        0.52953
O         -0.44300       -2.07047       -0.81978
C         -2.92658       -1.76164        0.02496
C         -2.60382        3.44210       -0.24184
C          1.39700        1.61300       -0.30200
C          2.66800        1.64800        0.56900
C          2.89800        0.12700        0.80200
C          1.78700       -0.50300       -0.08600
O          1.62600        0.46500       -1.13100
H          0.23900        1.62800        1.57100
H          0.51400       -0.69000        1.72200
H         -2.74806       -2.81384        0.26529
H         -3.37872        2.97817        0.37591
H          3.49300        2.08800        0.00200
H          2.54500        2.22000        1.49400
H          3.88300       -0.19200        0.44700
H          2.81000       -0.17200        1.85100
H         -3.83066       -1.40363        0.51760
H         -3.00857       -1.65851       -1.06027
H         -2.80274        3.22453       -1.29455
H         -2.56781        4.51891       -0.07002
H          1.20200        2.48300       -0.92500
C          2.09900       -1.86600       -0.66700
H          3.05500       -1.83000       -1.19600
H          2.16200       -2.61800        0.12500
H          1.32400       -2.16600       -1.37900
