32
1101.pdb
C          0.19200        1.18300        0.57000
C          0.41800       -0.36100        0.68600
C         -1.14300        1.61200       -0.01600
C         -0.63700       -1.21100        0.01200
O         -0.94204        2.43900       -1.06768
O         -2.23052        1.22366        0.34085
O         -0.81911       -0.80699       -1.26747
O         -1.29584       -2.08444        0.53278
C         -1.86879       -1.48804       -1.97584
C         -2.13562        3.02367       -1.61480
C          1.39700        1.61300       -0.30200
C          2.66800        1.64800        0.56900
C          2.89800        0.12700        0.80200
C          1.78700       -0.50300       -0.08600
O          1.62600        0.46500       -1.13100
H          0.23900        1.62800        1.57100
H          0.51400       -0.69000        1.72200
H         -2.83349       -1.31645       -1.48937
H         -2.62520        3.64099       -0.85549
H          3.49300        2.08800        0.00200
H          2.54500        2.22000        1.49400
H          3.88300       -0.19200        0.44700
H          2.81000       -0.17200        1.85100
H         -1.86606       -1.06748       -2.98150
H         -1.67630       -2.56378       -2.00399
H         -2.82839        2.24778       -1.95118
H         -1.80466        3.63655       -2.45456
H          1.20200        2.48300       -0.92500
C          2.09900       -1.86600       -0.66700
H          3.05500       -1.83000       -1.19600
H          2.16200       -2.61800        0.12500
H          1.32400       -2.16600       -1.37900
