32
1101.pdb
C          0.19200        1.18300        0.57000
C          0.41800       -0.36100        0.68600
C         -1.14300        1.61200       -0.01600
C         -0.63700       -1.21100        0.01200
O         -1.14207        1.42316       -1.35566
O         -2.10178        1.99513        0.61233
O         -1.70296       -1.37387        0.83092
O         -0.54375       -1.74613       -1.07110
C         -2.72943       -2.24484        0.32575
C         -2.30188        1.92701       -2.03888
C          1.39700        1.61300       -0.30200
C          2.66800        1.64800        0.56900
C          2.89800        0.12700        0.80200
C          1.78700       -0.50300       -0.08600
O          1.62600        0.46500       -1.13100
H          0.23900        1.62800        1.57100
H          0.51400       -0.69000        1.72200
H         -2.33601       -3.25458        0.17615
H         -2.36780        3.01079       -1.90325
H          3.49300        2.08800        0.00200
H          2.54500        2.22000        1.49400
H          3.88300       -0.19200        0.44700
H          2.81000       -0.17200        1.85100
H         -3.51296       -2.24675        1.08359
H         -3.11231       -1.87245       -0.62809
H         -3.21203        1.45890       -1.65470
H         -2.15437        1.67890       -3.09103
H          1.20200        2.48300       -0.92500
C          2.09900       -1.86600       -0.66700
H          3.05500       -1.83000       -1.19600
H          2.16200       -2.61800        0.12500
H          1.32400       -2.16600       -1.37900
