30

C        -0.51141000        -1.10222000        +4.71472000
C        -0.52406000        +0.30026000        +4.83654000
C        -1.71017000        -1.83468000        +4.65609000
C        -2.90649000        -1.11908000        +4.72876000
C        -2.92010000        +0.26403000        +4.85095000
C        -1.73858000        +1.00552000        +4.90971000
H        -3.87051000        +0.78473000        +4.89871000
H        -3.84589000        -1.66063000        +4.69173000
C        -1.80657000        +2.50894000        +5.03000000
H        -1.20911000        +3.00500000        +4.26096000
H        -1.42200000        +2.84575000        +5.99445000
H        -2.83908000        +2.84771000        +4.92799000
H        -1.70575000        -2.86245000        +4.56286000
H        +0.39128000        -1.60018000        +4.66775000
H        +0.36854000        +0.81697000        +4.87258000
C        -0.54444000        -0.68370000        -0.06689000
C        -0.55709000        +0.71878000        +0.05493000
C        -1.74320000        -1.41616000        -0.12552000
C        -2.93952000        -0.70056000        -0.05285000
C        -2.95313000        +0.68255000        +0.06934000
C        -1.77161000        +1.42404000        +0.12810000
H        -3.90354000        +1.20325000        +0.11710000
H        -3.87892000        -1.24211000        -0.08988000
C        -1.83960000        +2.92746000        +0.24839000
H        -1.24214000        +3.42352000        -0.52065000
H        -1.45503000        +3.26427000        +1.21284000
H        -2.87211000        +3.26623000        +0.14638000
H        -1.73878000        -2.44393000        -0.21875000
H        +0.35825000        -1.18166000        -0.11386000
H        +0.33551000        +1.23549000        +0.09097000
