30

C        -0.70849000        -1.02689000        +4.71801000
C        -0.72114000        +0.37559000        +4.83983000
C        -1.90725000        -1.75935000        +4.65938000
C        -3.10357000        -1.04375000        +4.73205000
C        -3.11718000        +0.33936000        +4.85424000
C        -1.93566000        +1.08085000        +4.91300000
H        -4.06759000        +0.86006000        +4.90200000
H        -4.04297000        -1.58530000        +4.69502000
C        -2.00365000        +2.58427000        +5.03329000
H        -1.40619000        +3.08033000        +4.26425000
H        -1.61908000        +2.92108000        +5.99774000
H        -3.03616000        +2.92304000        +4.93128000
H        -1.90283000        -2.78712000        +4.56615000
H        +0.19420000        -1.52485000        +4.67104000
H        +0.17146000        +0.89230000        +4.87587000
C        -0.54444000        -0.68370000        -0.06689000
C        -0.55709000        +0.71878000        +0.05493000
C        -1.74320000        -1.41616000        -0.12552000
C        -2.93952000        -0.70056000        -0.05285000
C        -2.95313000        +0.68255000        +0.06934000
C        -1.77161000        +1.42404000        +0.12810000
H        -3.90354000        +1.20325000        +0.11710000
H        -3.87892000        -1.24211000        -0.08988000
C        -1.83960000        +2.92746000        +0.24839000
H        -1.24214000        +3.42352000        -0.52065000
H        -1.45503000        +3.26427000        +1.21284000
H        -2.87211000        +3.26623000        +0.14638000
H        -1.73878000        -2.44393000        -0.21875000
H        +0.35825000        -1.18166000        -0.11386000
H        +0.33551000        +1.23549000        +0.09097000
