30

C        -0.54444000        -0.68370000        -0.06689000
C        -0.55709000        +0.71878000        +0.05493000
C        -1.74320000        -1.41616000        -0.12552000
C        -2.93952000        -0.70056000        -0.05285000
C        -2.95313000        +0.68255000        +0.06934000
C        -1.77161000        +1.42404000        +0.12810000
H        -3.90354000        +1.20325000        +0.11710000
H        -3.87892000        -1.24211000        -0.08988000
C        -1.83960000        +2.92746000        +0.24839000
H        -1.24214000        +3.42352000        -0.52065000
H        -1.45503000        +3.26427000        +1.21284000
H        -2.87211000        +3.26623000        +0.14638000
H        -1.73878000        -2.44393000        -0.21875000
H        +0.35825000        -1.18166000        -0.11386000
H        +0.33551000        +1.23549000        +0.09097000
C        -0.72558000        -1.06264000        +5.21644000
C        -0.73823000        +0.33984000        +5.33826000
C        -1.92434000        -1.79510000        +5.15781000
C        -3.12066000        -1.07950000        +5.23048000
C        -3.13427000        +0.30361000        +5.35267000
C        -1.95275000        +1.04510000        +5.41143000
H        -4.08468000        +0.82431000        +5.40043000
H        -4.06006000        -1.62105000        +5.19345000
C        -2.02074000        +2.54852000        +5.53172000
H        -1.42328000        +3.04458000        +4.76268000
H        -1.63617000        +2.88533000        +6.49617000
H        -3.05325000        +2.88729000        +5.42971000
H        -1.91992000        -2.82287000        +5.06458000
H        +0.17711000        -1.56060000        +5.16947000
H        +0.15437000        +0.85655000        +5.37430000
