29

H          0.84103       -0.69250        2.06911
C         -0.32027       -1.51296        0.55952
O         -0.64936       -2.47350        1.21510
O         -0.81936       -1.24801       -0.66398
C         -1.81352       -2.16124       -1.15902
H         -1.39279       -3.16211       -1.26836
H         -2.66413       -2.20486       -0.47684
H         -2.11358       -1.76433       -2.12647
H          0.48957        1.51164        1.70653
C         -0.77282        1.42346        0.04743
O         -0.86442        2.03800       -0.98559
O         -1.83823        1.05638        0.79502
C         -3.13211        1.33566        0.23377
H         -3.24198        0.83272       -0.72871
H         -3.85069        0.94867        0.95300
H         -3.26764        2.40919        0.09406
C          0.51305        1.01510        0.73155
C          0.73209       -0.52113        0.99877
C          1.81383        1.43528       -0.03330
C          1.78816        0.74895       -1.38842
C          1.98221       -0.55717       -1.18157
C          2.14215       -0.76909        0.31378
C          2.84616        0.55054        0.70388
H          1.91364       -1.35111       -1.91292
H          2.60126       -1.70392        0.63183
H          1.98011        2.51088       -0.04157
H          3.84655        0.62984        0.27579
H          2.88968        0.72342        1.78368
H          1.52657        1.23689       -2.31588
