32

C        -0.0962901936    0.8160164517    0.6313074751
C         0.6906966579   -0.5346842321    0.5964334902
C        -1.3827393057    0.8469057093   -0.1658518795
C        -0.1297164937   -1.7322104481    0.1412985742
O        -2.1499264970    1.8847712867    0.2404534425
O        -1.6915369915    0.1093785027   -1.0670585260
O        -1.1719023904   -1.8920716587    0.9953778972
O         0.1037495971   -2.4914681176   -0.7608866403
C        -2.1089029963   -2.9266983887    0.6470265672
C        -3.3785424370    2.0795879600   -0.4861155379
C         0.9392963432    1.7629444386   -0.0473936213
C         2.1279085593    1.9947750596    0.9090590470
C         2.8877032160    0.6462754840    0.7610322296
C         1.9720373936   -0.1379369314   -0.2221461249
O         1.4847495785    0.9307805985   -1.0674139824
H        -0.3230784161    1.1373478581    1.6471384798
H         0.9795647934   -0.7836651634    1.6210332682
H        -1.6096427432   -3.8948067190    0.5890080844
H        -3.1730287121    2.2619303783   -1.5419754356
H         2.7324789753    2.8348352718    0.5644200501
H         1.8046850124    2.2063119717    1.9303894187
H         3.8671288589    0.7940253822    0.3027928588
H         3.0330845520    0.1213830187    1.7070837631
H        -2.8527584636   -2.9258438312    1.4411993097
H        -2.5709223892   -2.6980087131   -0.3146629393
H        -3.8506025920    2.9470965670   -0.0303899639
H        -4.0183179411    1.2007803909   -0.3926421613
H         0.5057432901    2.6590858170   -0.4869050916
C         2.6801670188   -1.1860461153   -1.0497541447
H         3.5535534225   -0.7335227787   -1.5257238083
H         3.0186545969   -2.0083010373   -0.4141010682
H         2.0202634365   -1.5969336981   -1.8089959449
