32

C      0.71054150     -2.38835123      0.07914753
C     -0.03528984     -2.12119734      1.43848453
C      1.37057826     -1.19469191     -0.57829778
C      0.12948923     -0.67327674      1.88886158
O      2.52884187     -1.56972469     -1.16719572
O      0.92233471     -0.07101555     -0.65030144
O     -0.90001369      0.12782953      1.58373138
O      1.13718658     -0.29818064      2.45209663
C     -0.66316578      1.52951820      1.79536082
C      3.20944622     -0.52749349     -1.88807411
C     -0.47785573     -2.90895767     -0.80598681
C     -0.73238796     -4.38475283     -0.45052406
C     -1.34456046     -4.22109806      0.96764386
C     -1.46087830     -2.66764719      1.10315370
O     -1.61915629     -2.24802522     -0.26831847
H      1.46781556     -3.16470043      0.19674817
H      0.43963203     -2.70990091      2.22725704
H      0.15758459      1.85628912      1.15223881
H      3.49537856      0.28057666     -1.20886245
H     -1.45639169     -4.81371206     -1.14909234
H      0.17377118     -4.99723116     -0.47574399
H     -2.33800085     -4.67390764      1.03100990
H     -0.72848956     -4.66050707      1.75840382
H     -1.59297812      2.02634627      1.51689477
H     -0.41317522      1.72818988      2.84109013
H      2.56552054     -0.11952004     -2.67224176
H      4.09310382     -0.99872554     -2.31961763
H     -0.38450455     -2.68329164     -1.86946933
C     -2.63291939     -2.22334434      1.95475463
H     -3.54806869     -2.69937012      1.58815270
H     -2.47865644     -2.53476815      2.99428802
H     -2.75914210     -1.14232801      1.92496785
