30

C        -0.74951000        -1.11269000        +5.91424000
C        -0.76216000        +0.28979000        +6.03606000
C        -1.94827000        -1.84515000        +5.85561000
C        -3.14459000        -1.12955000        +5.92828000
C        -3.15820000        +0.25356000        +6.05047000
C        -1.97668000        +0.99505000        +6.10923000
H        -4.10861000        +0.77426000        +6.09823000
H        -4.08399000        -1.67110000        +5.89125000
C        -2.04467000        +2.49847000        +6.22952000
H        -1.44721000        +2.99453000        +5.46048000
H        -1.66010000        +2.83528000        +7.19397000
H        -3.07718000        +2.83724000        +6.12751000
H        -1.94385000        -2.87292000        +5.76238000
H        +0.15318000        -1.61065000        +5.86727000
H        +0.13044000        +0.80650000        +6.07210000
C        -0.54444000        -0.68370000        -0.06689000
C        -0.55709000        +0.71878000        +0.05493000
C        -1.74320000        -1.41616000        -0.12552000
C        -2.93952000        -0.70056000        -0.05285000
C        -2.95313000        +0.68255000        +0.06934000
C        -1.77161000        +1.42404000        +0.12810000
H        -3.90354000        +1.20325000        +0.11710000
H        -3.87892000        -1.24211000        -0.08988000
C        -1.83960000        +2.92746000        +0.24839000
H        -1.24214000        +3.42352000        -0.52065000
H        -1.45503000        +3.26427000        +1.21284000
H        -2.87211000        +3.26623000        +0.14638000
H        -1.73878000        -2.44393000        -0.21875000
H        +0.35825000        -1.18166000        -0.11386000
H        +0.33551000        +1.23549000        +0.09097000
