36

C        -1.97681000        +0.09270000        +4.34168000
C        -1.98946000        +1.49518000        +4.46350000
C        -3.17557000        -0.63976000        +4.28305000
C        -4.37189000        +0.07584000        +4.35572000
C        -4.38550000        +1.45895000        +4.47791000
C        -3.20398000        +2.20044000        +4.53667000
H        -5.33591000        +1.97965000        +4.52567000
H        -5.31129000        -0.46571000        +4.31869000
C        -3.27197000        +3.70386000        +4.65696000
C        -3.21340000        -2.14586000        +4.16267000
H        -2.82989000        -2.47583000        +3.19534000
H        -4.23809000        -2.50535000        +4.27230000
H        -2.60195000        -2.63137000        +4.92783000
H        -2.67451000        +4.19992000        +3.88792000
H        -2.88740000        +4.04067000        +5.62141000
H        -4.30448000        +4.04263000        +4.55495000
H        -1.07412000        -0.40526000        +4.29471000
H        -1.09686000        +2.01189000        +4.49954000
C        -0.54444000        -0.68370000        -0.06689000
C        -0.55709000        +0.71878000        +0.05493000
C        -1.74320000        -1.41616000        -0.12552000
C        -2.93952000        -0.70056000        -0.05285000
C        -2.95313000        +0.68255000        +0.06934000
C        -1.77161000        +1.42404000        +0.12810000
H        -3.90354000        +1.20325000        +0.11710000
H        -3.87892000        -1.24211000        -0.08988000
C        -1.83960000        +2.92746000        +0.24839000
C        -1.78103000        -2.92226000        -0.24590000
H        -1.39752000        -3.25223000        -1.21323000
H        -2.80572000        -3.28175000        -0.13627000
H        -1.16958000        -3.40777000        +0.51926000
H        -1.24214000        +3.42352000        -0.52065000
H        -1.45503000        +3.26427000        +1.21284000
H        -2.87211000        +3.26623000        +0.14638000
H        +0.35825000        -1.18166000        -0.11386000
H        +0.33551000        +1.23549000        +0.09097000
