29

C      0.64345714     -2.18744611      0.06397121
C      0.13653584     -2.05133596      1.54851526
C      1.11341429     -0.89397023     -0.57837779
C      0.10515365     -0.62051438      2.07881535
O      2.45241598     -0.76898205     -0.48332454
O      0.39192594     -0.09796135     -1.13718081
O     -0.91784261     -0.42261109      2.93316254
O      0.93172587      0.23030833      1.82904708
C     -0.99942290      0.90080163      3.49317329
C      2.96628925      0.50197081     -0.91272320
C     -0.63929908     -2.73867759     -0.62525182
C     -0.75359248     -4.24955705     -0.34427933
C     -1.12086977     -4.23033881      1.17099900
C     -1.26196585     -2.70840305      1.42727640
O     -1.70803053     -2.19780175      0.16564687
H      1.46815159     -2.90275957      0.02020305
H      0.79453904     -2.60252918      2.23071986
H     -1.87405842      0.88798310      4.14402384
H      4.04657488      0.44564099     -0.77285368
H     -0.75959514     -2.42294647     -1.66071077
H     -1.56123149     -4.67991841     -0.94257653
H      0.16674425     -4.79945151     -0.56471707
H     -2.07047337     -4.73728845      1.36226724
H     -0.35881910     -4.69419962      1.80573911
H     -1.96088229     -2.42528371      2.21109643
H     -0.09495086      1.13272867      4.06229197
H     -1.11950930      1.64052183      2.69726536
H      2.53673083      1.29651761     -0.29671894
H      2.72185464      0.68476336     -1.96307940
