24

 C   -0.432970000000    1.540850000000   -0.108800000000
 O   -0.612590000000    2.493850000000   -0.828090000000
 O   -1.311500000000    1.131340000000    0.828540000000
 C   -2.573630000000    1.820340000000    0.860460000000
 H   -2.424110000000    2.886660000000    1.034260000000
 H   -3.104390000000    1.681380000000   -0.083440000000
 H   -3.126890000000    1.370870000000    1.682020000000
 C   -0.439230000000   -1.501050000000    0.154920000000
 O   -0.629330000000   -2.417760000000    0.917030000000
 O   -1.299820000000   -1.143590000000   -0.819540000000
 C   -2.553270000000   -1.849280000000   -0.847730000000
 H   -3.097240000000   -1.437320000000   -1.694750000000
 H   -3.102430000000   -1.683550000000    0.081110000000
 H   -2.387930000000   -2.919350000000   -0.980130000000
 H    2.015510000000    2.454510000000   -0.400180000000
 H    2.001420000000   -2.431080000000    0.390560000000
 C    0.809380000000   -0.676870000000    0.112340000000
 C    0.812830000000    0.713700000000   -0.090390000000
 C    2.020890000000   -1.361230000000    0.221740000000
 C    3.228880000000   -0.681570000000    0.097020000000
 C    3.232290000000    0.691710000000   -0.140440000000
 C    2.028520000000    1.384750000000   -0.231480000000
 H    4.169970000000    1.224490000000   -0.246970000000
 H    4.163210000000   -1.224900000000    0.177460000000
