29

 C   -0.826000000000    1.317300000000   -0.651040000000
 O   -1.530150000000    1.483130000000   -1.617860000000
 O   -1.154550000000    1.719910000000    0.589550000000
 C   -2.471050000000    2.274000000000    0.741310000000
 H   -2.563470000000    2.519080000000    1.797120000000
 H   -2.586790000000    3.167630000000    0.125890000000
 H   -3.223800000000    1.539820000000    0.449420000000
 C   -0.504620000000   -1.727880000000   -0.193940000000
 O   -0.387870000000   -2.916670000000   -0.009890000000
 O   -1.657750000000   -1.066780000000   -0.040020000000
 C   -2.797560000000   -1.847160000000    0.368570000000
 H   -2.634300000000   -2.257720000000    1.365850000000
 H   -2.972750000000   -2.661030000000   -0.335480000000
 H   -3.635520000000   -1.154010000000    0.369810000000
 H    1.296960000000    2.036780000000    0.918730000000
 H    1.841990000000   -1.984990000000    0.881150000000
 C    0.668090000000   -0.868480000000   -0.645460000000
 C    0.559900000000    0.699630000000   -0.721860000000
 C    1.821230000000   -1.017230000000    0.388450000000
 C    3.158350000000   -0.537980000000   -0.218870000000
 C    2.990220000000    1.010110000000   -0.139100000000
 C    1.552240000000    1.114990000000    0.405460000000
 O    1.492930000000    0.014940000000    1.328340000000
 H    0.953870000000   -1.279210000000   -1.616230000000
 H    0.935460000000    1.012760000000   -1.697080000000
 H    3.996310000000   -0.883000000000    0.387900000000
 H    3.305330000000   -0.905160000000   -1.236600000000
 H    3.692470000000    1.448610000000    0.571390000000
 H    3.119390000000    1.511500000000   -1.100500000000
