35

C        -0.6382601039    0.4558691849    0.7066136069
C         0.9626256534    0.4997685338    0.7153578463
C        -1.3178595838   -0.9108603025    0.6293068684
C         1.7973769226   -0.6221453530    0.0621172342
O        -2.6388225663   -0.7463961778    0.3443554351
O        -0.8229352998   -1.9985785614    0.7613429777
O         1.1351976183   -1.4323501798   -0.7662025869
O         3.0073177217   -0.6376662133    0.1495681026
C         1.9222861084   -2.3743506261   -1.5098199618
C        -3.4182172194   -1.9508934046    0.2599830150
C        -1.0356065310    1.5114802681   -0.3931966892
C        -0.4975524490    1.0627223347   -1.7395884320
C         0.8299620915    1.2113921223   -1.7125488566
C         1.2020989018    1.7213181718   -0.3269547482
C        -0.0133018378    2.6270053053   -0.0627738750
C        -1.2248324430    0.9545711749    2.0778724056
C         1.6022138872    0.8083802016    2.0747682586
H         2.6119621588   -1.8548924241   -2.1784138228
H        -3.3855581102   -2.4973519010    1.2040153397
H         1.5394402848    0.9034951862   -2.4693045856
H         1.2041486085   -2.9614641202   -2.0783260430
H         2.4914793636   -3.0148259792   -0.8353395171
H        -4.4333277007   -1.6252182173    0.0416450755
H        -3.0431142865   -2.5952808134   -0.5370500516
H         2.1983463619    2.1461821837   -0.2204215590
H        -2.0927529778    1.7650939144   -0.3606920698
H         1.2739325559    1.7676612671    2.4731611940
H         1.3658499153    0.0324970026    2.8071400201
H         2.6845452985    0.8379323962    1.9604747160
H        -2.3077419639    1.0415236936    1.9877904320
H        -1.0077892731    0.2466690748    2.8806079992
H        -0.8332503211    1.9228873548    2.3740110280
H        -0.0653870263    3.4524047527   -0.7739545927
H        -0.0700098120    3.0239449350    0.9496700021
H        -1.0933500441    0.6142898993   -2.5235097490
