35

C         0.8253304713   -0.6309467399   -0.5210915689
C         0.4224143462    0.9267719179   -0.4967943980
C        -0.2539496158   -1.7339211338   -0.5332406903
C        -0.9327439159    1.3997700393    0.0748349569
O        -1.5195242010   -1.2843101632   -0.5740224420
O         0.0039975686   -2.8898118561   -0.7888959328
O        -1.4471178894    0.6436690001    1.0536641568
O        -1.4092881684    2.4776540168   -0.2103860948
C        -2.6515275905    1.1284313390    1.6628030693
C        -2.5334283381   -2.2655886586   -0.8529224175
C         1.9154816732   -0.7526454889    0.6110616832
C         1.3061460881   -0.4099163074    1.9576810132
C         1.0742031224    0.9059390757    1.9714177085
C         1.4881593568    1.4568576795    0.6133174722
C         2.7084152347    0.5540948772    0.3494128471
C         1.5285341583   -0.9864108225   -1.8814412374
C         0.6267254777    1.6698467746   -1.8243100739
H        -2.4879284897    2.1019654093    2.1284590587
H        -2.5557169353   -3.0281349280   -0.0730929793
H         0.5628088267    1.4712226106    2.7383489778
H        -2.9147346981    0.3834152395    2.4111352381
H        -3.4453888431    1.2214512538    0.9192778272
H        -3.4699395235   -1.7118358948   -0.8735382249
H        -2.3476718910   -2.7456912643   -1.8151757011
H         1.6250941386    2.5353513004    0.5458794633
H         2.4578352531   -1.6951094820    0.5525924559
H         1.6607841278    1.6281917261   -2.1598841744
H        -0.0094958038    1.2604488811   -2.6122863558
H         0.3510136610    2.7141398335   -1.6934498484
H         1.9168161555   -2.0006830471   -1.8159706889
H         0.8187854752   -0.9565788872   -2.7106944700
H         2.3472360230   -0.3165142628   -2.1218609337
H         3.4916032170    0.7071844980    1.0924025251
H         3.1392432532    0.6470686513   -0.6453513164
H         1.0252710751   -1.1343633432    2.7107904704
