36

C        -1.91586000        +0.05966000        +4.15409000
C        -1.92851000        +1.46214000        +4.27591000
C        -3.11462000        -0.67280000        +4.09546000
C        -4.31094000        +0.04280000        +4.16813000
C        -4.32455000        +1.42591000        +4.29032000
C        -3.14303000        +2.16740000        +4.34908000
H        -5.27496000        +1.94661000        +4.33808000
H        -5.25034000        -0.49875000        +4.13110000
C        -3.21102000        +3.67082000        +4.46937000
C        -3.15245000        -2.17890000        +3.97508000
H        -2.76894000        -2.50887000        +3.00775000
H        -4.17714000        -2.53839000        +4.08471000
H        -2.54100000        -2.66441000        +4.74024000
H        -2.61356000        +4.16688000        +3.70033000
H        -2.82645000        +4.00763000        +5.43382000
H        -4.24353000        +4.00959000        +4.36736000
H        -1.01317000        -0.43830000        +4.10712000
H        -1.03591000        +1.97885000        +4.31195000
C        -0.54444000        -0.68370000        -0.06689000
C        -0.55709000        +0.71878000        +0.05493000
C        -1.74320000        -1.41616000        -0.12552000
C        -2.93952000        -0.70056000        -0.05285000
C        -2.95313000        +0.68255000        +0.06934000
C        -1.77161000        +1.42404000        +0.12810000
H        -3.90354000        +1.20325000        +0.11710000
H        -3.87892000        -1.24211000        -0.08988000
C        -1.83960000        +2.92746000        +0.24839000
C        -1.78103000        -2.92226000        -0.24590000
H        -1.39752000        -3.25223000        -1.21323000
H        -2.80572000        -3.28175000        -0.13627000
H        -1.16958000        -3.40777000        +0.51926000
H        -1.24214000        +3.42352000        -0.52065000
H        -1.45503000        +3.26427000        +1.21284000
H        -2.87211000        +3.26623000        +0.14638000
H        +0.35825000        -1.18166000        -0.11386000
H        +0.33551000        +1.23549000        +0.09097000
