29

C          0.19900        0.79300        0.83500
C          0.89200       -0.61700        0.84600
C         -1.06800        0.92100        0.02100
C          0.17100       -1.73800        0.12400
O         -1.86400        1.88800        0.53500
O         -1.33700        0.31100       -0.99200
O         -1.02000       -1.98700        0.71400
O          0.60700       -2.37300       -0.80900
C         -1.84700       -2.93600        0.02100
C         -3.06700        2.14100       -0.21000
C          1.35100        1.71400        0.24200
C          1.57500        1.29100       -1.20000
C          2.15100        0.08100       -1.18100
C          2.32000       -0.32100        0.27500
C          2.57900        1.06200        0.91700
H         -2.09800       -2.54900       -0.97100
H         -3.68400        1.24000       -0.26000
H          2.34000       -0.57500       -2.02000
H         -2.74500       -3.04600        0.63000
H         -1.33200       -3.89500       -0.08500
H         -3.58600        2.93400        0.33100
H         -2.82900        2.46000       -1.22900
H          3.03700       -1.11800        0.47700
H          1.17400        2.77600        0.42300
H          3.52200        1.50900        0.58800
H          2.53200        1.06200        2.01300
H          1.20000        1.82500       -2.06500
H         -0.02000        1.11800        1.85500
H          0.97400       -0.93600        1.89200
