30

C        -0.54444000        -0.68370000        -0.06689000
C        -0.55709000        +0.71878000        +0.05493000
C        -1.74320000        -1.41616000        -0.12552000
C        -2.93952000        -0.70056000        -0.05285000
C        -2.95313000        +0.68255000        +0.06934000
C        -1.77161000        +1.42404000        +0.12810000
H        -3.90354000        +1.20325000        +0.11710000
H        -3.87892000        -1.24211000        -0.08988000
C        -1.83960000        +2.92746000        +0.24839000
H        -1.24214000        +3.42352000        -0.52065000
H        -1.45503000        +3.26427000        +1.21284000
H        -2.87211000        +3.26623000        +0.14638000
H        -1.73878000        -2.44393000        -0.21875000
H        +0.35825000        -1.18166000        -0.11386000
H        +0.33551000        +1.23549000        +0.09097000
C        -0.50866000        -1.13710000        +5.11318000
C        -0.52131000        +0.26538000        +5.23500000
C        -1.70742000        -1.86956000        +5.05455000
C        -2.90374000        -1.15396000        +5.12722000
C        -2.91735000        +0.22915000        +5.24941000
C        -1.73583000        +0.97064000        +5.30817000
H        -3.86776000        +0.74985000        +5.29717000
H        -3.84314000        -1.69551000        +5.09019000
C        -1.80382000        +2.47406000        +5.42846000
H        -1.20636000        +2.97012000        +4.65942000
H        -1.41925000        +2.81087000        +6.39291000
H        -2.83633000        +2.81283000        +5.32645000
H        -1.70300000        -2.89733000        +4.96132000
H        +0.39403000        -1.63506000        +5.06621000
H        +0.37129000        +0.78209000        +5.27104000
