30

C        -0.54444000        -0.68370000        -0.06689000
C        -0.55709000        +0.71878000        +0.05493000
C        -1.74320000        -1.41616000        -0.12552000
C        -2.93952000        -0.70056000        -0.05285000
C        -2.95313000        +0.68255000        +0.06934000
C        -1.77161000        +1.42404000        +0.12810000
H        -3.90354000        +1.20325000        +0.11710000
H        -3.87892000        -1.24211000        -0.08988000
C        -1.83960000        +2.92746000        +0.24839000
H        -1.24214000        +3.42352000        -0.52065000
H        -1.45503000        +3.26427000        +1.21284000
H        -2.87211000        +3.26623000        +0.14638000
H        -1.73878000        -2.44393000        -0.21875000
H        +0.35825000        -1.18166000        -0.11386000
H        +0.33551000        +1.23549000        +0.09097000
C        -0.72216000        -1.05549000        +5.11676000
C        -0.73481000        +0.34699000        +5.23858000
C        -1.92092000        -1.78795000        +5.05813000
C        -3.11724000        -1.07235000        +5.13080000
C        -3.13085000        +0.31076000        +5.25299000
C        -1.94933000        +1.05225000        +5.31175000
H        -4.08126000        +0.83146000        +5.30075000
H        -4.05664000        -1.61390000        +5.09377000
C        -2.01732000        +2.55567000        +5.43204000
H        -1.41986000        +3.05173000        +4.66300000
H        -1.63275000        +2.89248000        +6.39649000
H        -3.04983000        +2.89444000        +5.33003000
H        -1.91650000        -2.81572000        +4.96490000
H        +0.18053000        -1.55345000        +5.06979000
H        +0.15779000        +0.86370000        +5.27462000
