56

O         -3.94934       -3.66094        2.70899
C         -3.26408       -4.56952        2.26188
C         -3.36658       -6.02376        2.66595
C         -2.05485       -6.75662        2.99173
C         -0.80436       -5.90750        3.04969
O          0.23060       -6.56394        2.44689
C          1.45662       -5.82535        2.47165
C          2.56145       -6.61737        1.78014
O          3.76744       -5.83860        1.73558
C          4.51359       -5.85387        2.86791
C          5.64198       -4.85050        2.84255
C          7.00179       -5.39376        3.30522
C          7.12024       -6.90284        3.37837
O          6.70969       -7.68772        2.53577
O          4.23713       -6.49725        3.87509
O          7.80012       -7.25498        4.50705
C          7.97313       -8.66439        4.66318
C          5.99307       -4.24415        1.47499
C          6.71545       -2.90949        1.67841
C          8.06072       -3.36387        2.25457
C          7.93549       -4.88970        2.20564
O          7.10496       -5.05432        1.03317
H          5.30001       -4.04364        3.50532
H          7.26713       -4.97282        4.28270
H          5.19982       -4.19988        0.72653
H          6.88164       -2.41427        0.71470
H          6.17650       -2.21806        2.33242
H          8.87179       -3.01848        1.60425
H          8.24353       -2.98375        3.26417
H          8.88668       -5.41947        2.10982
O         -2.40224       -4.44589        1.20859
O         -0.71547       -4.80406        3.56924
C         -2.22740       -3.09890        0.76563
C         -4.15448       -6.20228        3.97258
C         -4.66621       -7.64136        4.07904
C         -3.37401       -8.42072        4.34464
C         -2.32876       -7.30462        4.39293
O         -3.10950       -6.23634        4.97191
H         -3.90120       -6.51901        1.84465
H         -1.88909       -7.56908        2.27339
H         -1.87210       -2.46601        1.58525
H         -4.90957       -5.44613        4.19856
H         -5.33725       -7.74673        4.93925
H         -5.19706       -7.97980        3.18470
H         -3.44582       -8.92476        5.31499
H         -3.16146       -9.17370        3.58020
H         -1.44635       -7.53686        4.99482
H         -3.16186       -2.70968        0.35009
H         -1.46968       -3.09816       -0.02277
H          8.41197       -8.84436        5.64844
H          8.66071       -9.04467        3.90148
H          7.01179       -9.18566        4.61406
H          2.72568       -7.59044        2.25942
H          2.27087       -6.83620        0.74646
H          1.73894       -5.61327        3.50954
H          1.32368       -4.86680        1.95409
