44

C          0.22191        0.69538        0.59229
C          0.67072       -0.78586        0.59657
C         -1.04403        0.98610       -0.19236
C         -0.35798       -1.77846        0.08318
O         -1.82068        1.86558        0.50500
O         -1.32717        0.52580       -1.28811
O         -1.52589       -1.60403        0.77673
O         -0.16525       -2.68466       -0.71116
C         -2.58448       -2.48263        0.37057
C         -3.04083        2.20853       -0.15372
C          1.43314        1.40013       -0.03967
C          2.62815        1.34463        0.92807
C          3.07337       -0.11353        0.81105
C          2.02230       -0.69802       -0.15512
O          1.84208        0.43819       -1.03691
H          0.06532        1.03274        1.62520
H          0.86867       -1.11532        1.62683
H         -2.28806       -3.52193        0.55377
H         -3.65589        1.31698       -0.31149
H          3.44580        1.99776        0.60148
H          2.35959        1.62652        1.95103
H          4.07961       -0.14384        0.37603
H          3.10899       -0.62848        1.77606
C         -3.82095       -2.13766        1.19289
H         -2.78909       -2.33929       -0.69695
H         -2.83411        2.71209       -1.10318
H         -3.59130        2.89854        0.49169
C          2.54550       -1.90601       -0.90340
H          3.55179       -1.71539       -1.29452
H          2.59413       -2.78861       -0.25878
H          1.93618       -2.12657       -1.78523
C          1.21457        2.77972       -0.62948
H          2.14480        3.16923       -1.05852
H          0.49674        2.75707       -1.45587
H          0.86226        3.48564        0.12875
C         -5.01187       -3.01283        0.81354
H         -4.06781       -1.07789        1.05163
H         -3.58938       -2.25136        2.25940
H         -5.25232       -2.87408       -0.24696
C         -6.23652       -2.68023        1.65064
H         -4.75755       -4.06998        0.95284
H         -6.53423       -1.63580        1.51339
H         -6.04032       -2.84493        2.71497
H         -7.07896       -3.31501        1.35865
