27

 C   -3.201820000000   -0.671740000000   -0.269530000000
 H   -3.318610000000   -0.001210000000   -1.121960000000
 H   -3.526160000000   -0.116910000000    0.612390000000
 H   -3.868870000000   -1.524800000000   -0.405310000000
 C   -0.687260000000    1.170830000000    0.080620000000
 O    0.294570000000    1.872060000000    0.186200000000
 O   -1.930380000000    1.687460000000    0.017770000000
 C   -2.017730000000    3.122160000000    0.092400000000
 H   -1.483380000000    3.580050000000   -0.741080000000
 H   -1.593570000000    3.480500000000    1.031200000000
 H   -3.080630000000    3.347730000000    0.038680000000
 H    1.785800000000   -2.716580000000    0.227790000000
 C    1.900790000000   -0.108790000000    0.326020000000
 O    2.436720000000    0.062670000000    1.391760000000
 O    2.415990000000    0.259370000000   -0.858970000000
 C    3.596100000000    1.081150000000   -0.795510000000
 H    3.364590000000    2.017700000000   -0.285740000000
 H    3.876260000000    1.265470000000   -1.830230000000
 H    4.396890000000    0.564360000000   -0.264510000000
 C    0.637150000000   -0.907900000000    0.139510000000
 C   -0.640810000000   -0.322520000000    0.019040000000
 C    0.795270000000   -2.290690000000    0.123260000000
 C   -0.315710000000   -3.111190000000   -0.025400000000
 C   -1.577220000000   -2.544450000000   -0.152470000000
 C   -1.777140000000   -1.159310000000   -0.129650000000
 H   -2.440470000000   -3.190280000000   -0.268530000000
 H   -0.200210000000   -4.189100000000   -0.042700000000
