27

 C    0.044460000000    1.396080000000    0.130190000000
 O    0.016400000000    2.225560000000    1.005410000000
 O    0.826870000000    1.485920000000   -0.965460000000
 C    1.760590000000    2.579770000000   -0.982920000000
 H    1.235230000000    3.534850000000   -0.941270000000
 H    2.304260000000    2.481080000000   -1.919800000000
 H    2.439920000000    2.506480000000   -0.131760000000
 C    1.239460000000   -1.350940000000   -0.094060000000
 O    1.785820000000   -2.223290000000   -0.726530000000
 O    1.888800000000   -0.524580000000    0.750910000000
 C    3.317810000000   -0.673530000000    0.807210000000
 H    3.583480000000   -1.692460000000    1.091270000000
 H    3.651980000000    0.036060000000    1.560700000000
 H    3.760010000000   -0.444620000000   -0.164130000000
 C   -2.871240000000    1.655570000000    0.306440000000
 H   -3.956230000000    1.556820000000    0.246620000000
 H   -2.553940000000    2.359680000000   -0.468000000000
 H   -2.611550000000    2.101280000000    1.268200000000
 H   -0.587260000000   -3.200270000000   -0.360330000000
 C   -0.235140000000   -1.105270000000   -0.093870000000
 C   -0.811170000000    0.166990000000    0.071370000000
 C   -1.050690000000   -2.231480000000   -0.223290000000
 C   -2.431870000000   -2.098290000000   -0.162910000000
 C   -2.998360000000   -0.840570000000    0.019800000000
 C   -2.209550000000    0.308550000000    0.136340000000
 H   -4.077560000000   -0.740080000000    0.064690000000
 H   -3.067080000000   -2.971860000000   -0.255340000000
