29
1001.pdb
C         -0.62800       -0.88900        0.51500
C         -0.38100        0.65100        0.62200
C          0.54200       -1.72300        0.01900
C          0.87700        1.16000       -0.05300
O          1.01352       -1.21229       -1.14097
O          1.04458       -2.65400        0.60431
O          1.95238        0.48144        0.40799
O          0.95447        2.07848       -0.83902
C          3.22007        0.93397       -0.09938
C          2.04998       -1.98726       -1.76477
C         -1.86300       -0.94400       -0.42200
C         -3.12900       -0.60200        0.39000
C         -2.91400        0.92400        0.63300
C         -1.61900        1.17300       -0.17900
O         -1.70600        0.22600       -1.24300
H         -0.86700       -1.27900        1.51100
H         -0.39000        1.00700        1.65400
H          3.39053        1.98098        0.16993
H          1.66707       -2.97900       -2.02088
H         -1.90300       -1.83200       -1.05000
H         -4.02100       -0.78600       -0.21400
H         -3.21600       -1.18000        1.31500
H         -3.73700        1.51600        0.22400
H         -2.80200        1.18400        1.69000
H         -1.50300        2.18100       -0.58100
H          3.96858        0.28981        0.36213
H          3.24959        0.84287       -1.18946
H          2.90897       -2.09351       -1.09692
H          2.32793       -1.43701       -2.66492
