29
1001.pdb
C         -0.62800       -0.88900        0.51500
C         -0.38100        0.65100        0.62200
C          0.54200       -1.72300        0.01900
C          0.87700        1.16000       -0.05300
O          0.37265       -3.01540        0.37916
O          1.45219       -1.32436       -0.66990
O          1.96258        0.55969        0.48602
O          0.94381        2.02206       -0.90143
C          3.22725        1.02483       -0.01748
C          1.47557       -3.87990        0.06266
C         -1.86300       -0.94400       -0.42200
C         -3.12900       -0.60200        0.39000
C         -2.91400        0.92400        0.63300
C         -1.61900        1.17300       -0.17900
O         -1.70600        0.22600       -1.24300
H         -0.86700       -1.27900        1.51100
H         -0.39000        1.00700        1.65400
H          3.34972        2.09443        0.17943
H          2.37099       -3.54717        0.59491
H         -1.90300       -1.83200       -1.05000
H         -4.02100       -0.78600       -0.21400
H         -3.21600       -1.18000        1.31500
H         -3.73700        1.51600        0.22400
H         -2.80200        1.18400        1.69000
H         -1.50300        2.18100       -0.58100
H          3.98504        0.44582        0.51044
H          3.29362        0.85699       -1.09677
H          1.67312       -3.87741       -1.01259
H          1.17569       -4.87428        0.39668
