29
1001.pdb
C         -0.62800       -0.88900        0.51500
C         -0.38100        0.65100        0.62200
C          0.54200       -1.72300        0.01900
C          0.87700        1.16000       -0.05300
O          0.16308       -2.45946       -1.04998
O          1.67148       -1.68189        0.44855
O          0.88239        0.78954       -1.35382
O          1.79193        1.75224        0.47576
C          2.07103        1.14449       -2.08211
C          1.15764       -3.37566       -1.53515
C         -1.86300       -0.94400       -0.42200
C         -3.12900       -0.60200        0.39000
C         -2.91400        0.92400        0.63300
C         -1.61900        1.17300       -0.17900
O         -1.70600        0.22600       -1.24300
H         -0.86700       -1.27900        1.51100
H         -0.39000        1.00700        1.65400
H          2.95152        0.67318       -1.63443
H          1.40216       -4.10291       -0.75599
H         -1.90300       -1.83200       -1.05000
H         -4.02100       -0.78600       -0.21400
H         -3.21600       -1.18000        1.31500
H         -3.73700        1.51600        0.22400
H         -2.80200        1.18400        1.69000
H         -1.50300        2.18100       -0.58100
H          1.91319        0.78148       -3.09774
H          2.21277        2.22953       -2.07615
H          2.06556       -2.84181       -1.82820
H          0.70697       -3.87053       -2.39671
