29
1001.pdb
C         -0.62800       -0.88900        0.51500
C         -0.38100        0.65100        0.62200
C          0.54200       -1.72300        0.01900
C          0.87700        1.16000       -0.05300
O          0.19604       -2.37513       -1.11401
O          1.64988       -1.74447        0.50281
O          1.46560        2.09994        0.72125
O          1.28685        0.84609       -1.14886
C          2.62858        2.72069        0.14558
C          1.18814       -3.28656       -1.61301
C         -1.86300       -0.94400       -0.42200
C         -3.12900       -0.60200        0.39000
C         -2.91400        0.92400        0.63300
C         -1.61900        1.17300       -0.17900
O         -1.70600        0.22600       -1.24300
H         -0.86700       -1.27900        1.51100
H         -0.39000        1.00700        1.65400
H          2.37155        3.22463       -0.79132
H          1.37476       -4.07096       -0.87432
H         -1.90300       -1.83200       -1.05000
H         -4.02100       -0.78600       -0.21400
H         -3.21600       -1.18000        1.31500
H         -3.73700        1.51600        0.22400
H         -2.80200        1.18400        1.69000
H         -1.50300        2.18100       -0.58100
H          2.97628        3.43934        0.88776
H          3.39945        1.97148       -0.05911
H          2.12327       -2.76195       -1.82634
H          0.76692       -3.70936       -2.52630
