43

C        -0.8605086259   -0.2036609272    0.6996259053
C         0.6930568004   -0.0423258432    0.7996430283
C        -1.2283295671   -1.3792071803   -0.2237215489
C         1.4627810531   -1.3368680586    1.0249445666
O        -2.3756363306   -1.1888911194   -0.9028430556
O        -0.6418181707   -2.4322409096   -0.2570120529
O         2.5027851479   -1.5280250029    0.1948411214
O         1.1457159025   -2.1200373562    1.8846827539
C         3.2165462022   -2.7656707445    0.3736438475
C        -2.8191237083   -2.2916985080   -1.7140129928
C        -1.1693787969    1.1921862353    0.0613928340
C        -0.5998740277    2.3260979909    0.9755387507
C         0.8835356974    2.4012039708    0.5285230039
C         0.9850282239    1.0841206496   -0.2639305600
O        -0.2338281321    1.1468203772   -1.0403987305
H        -1.3326645640   -0.3728594952    1.6668833568
H         0.8640755871    0.4239423622    1.7751695092
H         2.5365684687   -3.6105197936    0.2598520474
H        -3.0095925300   -3.1689600283   -1.0942101113
H        -1.1311527821    3.2603377931    0.7953091936
H        -0.7190150003    2.0859422908    2.0331865792
H         1.0566913867    3.2444467364   -0.1430235163
H         1.5981918887    2.4580331339    1.3493049019
H         3.9788703141   -2.7742355011   -0.4028916502
H         3.6767273701   -2.8011965824    1.3621892149
H        -2.0684430657   -2.5386194058   -2.4659401303
H        -3.7371588882   -1.9486997614   -2.1869827108
C        -2.5631688417    1.5243751639   -0.4435501835
C         2.1657778990    0.9642135824   -1.2001266330
O         3.3395372451    1.2210958426   -0.4482904084
H         2.0495088787    1.7087127272   -2.0015316635
H         2.1985909920   -0.0327918592   -1.6498610589
C         4.5229002190    0.8688092968   -1.1342322791
H         5.3597838533    1.1099657585   -0.4780383237
H         4.6304215432    1.4328858008   -2.0720956493
H         4.5418758296   -0.2048753226   -1.3636194202
O        -3.4514975323    1.3616150533    0.6494718189
H        -2.8488652795    0.8871174670   -1.2799263752
H        -2.5634153009    2.5697623274   -0.7869300845
C        -4.8003774052    1.6024187396    0.3015324593
H        -5.3993077008    1.4403072091    1.1980638042
H        -5.1371586743    0.9142818314   -0.4862241818
H        -4.9481471827    2.6348767560   -0.0463164616
