43

C        -0.5617294334    0.0271692944    0.8132904496
C         1.0032709478   -0.0985348935    0.6491710247
C        -1.3577339518   -1.2639587983    0.9090254690
C         1.4953715249   -1.2314586628   -0.2637024875
O        -2.2272143966   -1.4588043270   -0.1020001247
O        -1.1704451746   -2.0747642640    1.7807860150
O         0.9491210569   -2.4095673477    0.0830552349
O         2.3023456512   -1.1362735208   -1.1554770788
C         1.3561939309   -3.5580054758   -0.6798792997
C        -2.9857936609   -2.6797316281   -0.0475550903
C        -0.8919586760    1.2496613232   -0.1276490849
C        -0.7069279756    2.4974480838    0.7607384375
C         0.8122647213    2.4003640215    1.0548069740
C         1.2776784964    1.3089384554    0.0393670940
O         0.2615498521    1.3457847666   -0.9838851321
H        -0.6942532472    0.3939121613    1.8350369668
H         1.4803247778   -0.2456898188    1.6185444025
H         2.4336741007   -3.7088662377   -0.5999225066
H        -3.6093671539   -2.7012500979    0.8474952645
H        -0.9468537469    3.3914050281    0.1810441182
H        -1.3393114373    2.4838732635    1.6480325858
H         1.3297288816    3.3397782833    0.8605732684
H         1.0353517207    2.1119981002    2.0831456336
H         0.8181544487   -4.3959691263   -0.2417684275
H         1.0887135592   -3.4317148029   -1.7302230081
H        -2.3194461387   -3.5433498591   -0.0406895119
H        -3.6036566564   -2.6777596270   -0.9433035380
C        -2.1459601665    1.2448835960   -0.9729249532
C         2.6421024093    1.6011518361   -0.5583639698
O         3.5999946139    1.3550360098    0.4606573691
H         2.6713566509    2.6571074094   -0.8659276408
H         2.8272510985    0.9722166943   -1.4287482036
C         4.9318479488    1.4309515870   -0.0111856806
H         5.5865112954    1.2341965593    0.8383902829
H         5.1585346459    2.4286657661   -0.4134814024
H         5.1171002484    0.6826053684   -0.7927119478
O        -3.2550510087    1.3084069937   -0.0911857247
H        -2.1907007747    0.3458870037   -1.5935317597
H        -2.1237214590    2.1262191186   -1.6303859832
C        -4.4896957294    1.0930889661   -0.7432491150
H        -5.2717941056    1.1675483905    0.0129435701
H        -4.5259160418    0.0960066885   -1.2032001754
H        -4.6721114599    1.8475553260   -1.5217149729
