43

C        -0.8025811331    0.0943506154   -0.6655131093
C         0.7559712732    0.2939170980   -0.5810077001
C        -1.7197275023    1.3048836550   -0.5917948402
C         1.1453944691    1.4203215420    0.3971042429
O        -1.2849925416    2.2408002515   -1.4562040237
O        -2.8111395404    1.3449727379   -0.0764160446
O         2.0661436739    1.0671190434    1.3108086909
O         0.7134057509    2.5455269722    0.3383103143
C         2.4780051181    2.1007043052    2.2235108050
C        -2.0636769448    3.4435364437   -1.5426624250
C        -1.0304950626   -1.2028248116    0.1927613062
C        -0.8608986599   -2.3727404834   -0.7950064736
C         0.6227536834   -2.1714037632   -1.1966925711
C         1.1263309822   -1.1527833156   -0.1208818447
O         0.1872994006   -1.3176424111    0.9607188299
H        -0.9941464148   -0.1938205825   -1.7044694367
H         1.1801332642    0.5602882367   -1.5487138782
H         1.6229826766    2.4716475318    2.7899842956
H        -2.0446567303    3.9687583017   -0.5863741442
H        -1.0099664101   -3.3167345770   -0.2672688361
H        -1.5624300013   -2.3313738586   -1.6278783390
H         1.1936970182   -3.0978989096   -1.1338245679
H         0.7478856784   -1.7831614809   -2.2090732023
H         3.1996625331    1.6269584367    2.8858634946
H         2.9368861639    2.9284329450    1.6809867067
H        -3.0955423218    3.2187002862   -1.8172895805
H        -1.5819333742    4.0445373577   -2.3106819536
C        -2.2258140562   -1.2911910362    1.1181182422
C         2.5369048171   -1.4695926006    0.3465426140
O         3.4229176415   -1.0320511334   -0.6723565661
H         2.6230342091   -2.5569910049    0.4871315576
H         2.7574095031   -0.9796369807    1.2941230827
C         4.7808757797   -1.2626945671   -0.3538083066
H         5.3763384169   -0.8910263499   -1.1880960515
H         4.9850923855   -2.3340438139   -0.2166694897
H         5.0709573564   -0.7289139058    0.5618643695
O        -3.3638466980   -1.5723244841    0.3224905180
H        -2.3568555381   -0.3568783050    1.6725374873
H        -2.0449750007   -2.1051920679    1.8350930217
C        -4.5853798747   -1.2832847298    0.9763907367
H        -5.3866777441   -1.5553538910    0.2885131095
H        -4.6568365870   -0.2149525910    1.2118314524
H        -4.6959164848   -1.8691163438    1.9005661375
