30

C         -3.31850        1.33923        0.25178
H         -4.32452        0.92570        0.34946
H         -3.29004        1.99245       -0.62168
H         -3.11588        1.97683        1.11393
C         -0.36246        1.77404       -0.03093
O         -1.01115        2.79517        0.01728
O          0.98150        1.78708       -0.14230
C          1.60613        3.07592       -0.24426
H          1.19886        3.62977       -1.09082
H          1.44902        3.64872        0.67119
H          2.66388        2.87120       -0.39418
C          0.28394       -3.26195       -0.22184
H         -0.29293       -4.17626       -0.07391
H          0.73875       -3.30313       -1.21531
H          1.09648       -3.25476        0.50988
C          1.41689       -0.66363       -0.25233
O          1.99747       -0.72055       -1.30696
O          2.02794       -0.66002        0.94797
C          3.46566       -0.62344        0.91669
H          3.77915       -0.63557        1.95813
H          3.80824        0.28723        0.42255
H          3.86081       -1.48987        0.38392
C         -0.07938       -0.74456       -0.09226
C         -0.91886        0.38718        0.01080
C         -0.60256       -2.04673       -0.08055
C         -1.98191       -2.19664        0.05166
C         -2.81528       -1.09361        0.16028
C         -2.32023        0.21153        0.13817
H         -3.88430       -1.24347        0.26351
H         -2.40797       -3.19452        0.06838
