30

C         -1.83960        2.92746        0.24839
H         -1.45503        3.26427        1.21284
H         -1.24214        3.42352       -0.52065
H         -2.87211        3.26623        0.14638
C          0.72843        1.48436        0.06598
O          1.01035        2.37097        0.83478
O          1.53784        1.08301       -0.93877
C          2.83449        1.70121       -0.99358
H          2.73835        2.77989       -1.12464
H          3.38998        1.50093       -0.07544
H          3.33184        1.25269       -1.85067
C         -1.78103       -2.92226       -0.24590
H         -2.80572       -3.28175       -0.13627
H         -1.39752       -3.25223       -1.21323
H         -1.16958       -3.40777        0.51926
C          0.74969       -1.43776       -0.09374
O          1.04702       -2.28405       -0.90088
O          1.53645       -1.09176        0.94813
C          2.82316       -1.73208        1.00475
H          3.39889       -1.50934        0.10459
H          3.31095       -1.32281        1.88650
H          2.70778       -2.81319        1.09555
C         -0.54444       -0.68370       -0.06689
C         -0.55709        0.71878        0.05493
C         -1.74320       -1.41616       -0.12552
C         -2.93952       -0.70056       -0.05285
C         -2.95313        0.68255        0.06934
C         -1.77161        1.42404        0.12810
H         -3.90354        1.20325        0.11710
H         -3.87892       -1.24211       -0.08988
