29

 C    0.608900000000    1.436910000000    0.501580000000
 O    1.072780000000    2.237950000000    1.277550000000
 O    1.097800000000    1.224040000000   -0.733250000000
 C    2.267170000000    1.977280000000   -1.096810000000
 H    2.058470000000    3.047570000000   -1.064510000000
 H    3.089940000000    1.753210000000   -0.415470000000
 H    2.507860000000    1.662790000000   -2.109720000000
 C    0.774350000000   -1.455510000000   -0.042020000000
 O    0.939320000000   -2.098150000000   -1.046780000000
 O    1.761920000000   -1.159820000000    0.830100000000
 C    3.086930000000   -1.569540000000    0.446600000000
 H    3.357200000000   -1.118660000000   -0.509560000000
 H    3.741100000000   -1.214000000000    1.239370000000
 H    3.141900000000   -2.655640000000    0.358900000000
 H   -1.813500000000    2.047270000000   -0.474620000000
 H   -1.574650000000   -1.928690000000   -1.234540000000
 C   -0.555970000000   -0.932810000000    0.472350000000
 C   -0.627670000000    0.607610000000    0.781230000000
 C   -1.706290000000   -1.098180000000   -0.547620000000
 C   -3.060410000000   -1.012030000000    0.190850000000
 C   -3.143130000000    0.517460000000    0.486420000000
 C   -1.822490000000    1.009620000000   -0.147200000000
 O   -1.664020000000    0.141980000000   -1.271130000000
 H   -0.753620000000   -1.488440000000    1.393330000000
 H   -0.864620000000    0.786750000000    1.828280000000
 H   -3.870020000000   -1.334800000000   -0.464700000000
 H   -3.086730000000   -1.627720000000    1.092260000000
 H   -3.993720000000    0.975380000000   -0.020440000000
 H   -3.214750000000    0.753100000000    1.549880000000
