60

C        -0.54444000        -0.68370000        -0.06689000
C        -0.55709000        +0.71878000        +0.05493000
C        +0.74969000        -1.43776000        -0.09374000
C        +0.72843000        +1.48436000        +0.06598000
O        +1.53645000        -1.09176000        +0.94813000
O        +1.04702000        -2.28405000        -0.90088000
O        +1.53784000        +1.08301000        -0.93877000
O        +1.01035000        +2.37097000        +0.83478000
C        +2.83449000        +1.70121000        -0.99358000
C        +2.82316000        -1.73208000        +1.00475000
C        -1.74320000        -1.41616000        -0.12552000
C        -2.93952000        -0.70056000        -0.05285000
C        -2.95313000        +0.68255000        +0.06934000
C        -1.77161000        +1.42404000        +0.12810000
H        +2.73835000        +2.77989000        -1.12464000
H        +2.70778000        -2.81319000        +1.09555000
H        -3.90354000        +1.20325000        +0.11710000
H        +3.38998000        +1.50093000        -0.07544000
H        +3.33184000        +1.25269000        -1.85067000
H        +3.31095000        -1.32281000        +1.88650000
H        +3.39889000        -1.50934000        +0.10459000
H        -3.87892000        -1.24211000        -0.08988000
C        -1.83960000        +2.92746000        +0.24839000
C        -1.78103000        -2.92226000        -0.24590000
H        -1.39752000        -3.25223000        -1.21323000
H        -2.80572000        -3.28175000        -0.13627000
H        -1.16958000        -3.40777000        +0.51926000
H        -1.24214000        +3.42352000        -0.52065000
H        -1.45503000        +3.26427000        +1.21284000
H        -2.87211000        +3.26623000        +0.14638000
C        -0.50590000        -1.17197000        +5.51165000
C        -0.51855000        +0.23051000        +5.63347000
C        +0.78823000        -1.92603000        +5.48480000
C        +0.76697000        +0.99609000        +5.64452000
O        +1.57499000        -1.58003000        +6.52667000
O        +1.08556000        -2.77232000        +4.67766000
O        +1.57638000        +0.59474000        +4.63977000
O        +1.04889000        +1.88270000        +6.41332000
C        +2.87303000        +1.21294000        +4.58496000
C        +2.86170000        -2.22035000        +6.58329000
C        -1.70466000        -1.90443000        +5.45302000
C        -2.90098000        -1.18883000        +5.52569000
C        -2.91459000        +0.19428000        +5.64788000
C        -1.73307000        +0.93577000        +5.70664000
H        +2.77689000        +2.29162000        +4.45390000
H        +2.74632000        -3.30146000        +6.67409000
H        -3.86500000        +0.71498000        +5.69564000
H        +3.42852000        +1.01266000        +5.50310000
H        +3.37038000        +0.76442000        +3.72787000
H        +3.34949000        -1.81108000        +7.46504000
H        +3.43743000        -1.99761000        +5.68313000
H        -3.84038000        -1.73038000        +5.48866000
C        -1.80106000        +2.43919000        +5.82693000
C        -1.74249000        -3.41053000        +5.33264000
H        -1.35898000        -3.74050000        +4.36531000
H        -2.76718000        -3.77002000        +5.44227000
H        -1.13104000        -3.89604000        +6.09780000
H        -1.20360000        +2.93525000        +5.05789000
H        -1.41649000        +2.77600000        +6.79138000
H        -2.83357000        +2.77796000        +5.72492000
