54

C        -0.49627000        -1.29404000        +6.90628000
C        -0.50892000        +0.10844000        +7.02810000
C        +0.79786000        -2.04810000        +6.87943000
C        +0.77660000        +0.87402000        +7.03915000
O        +1.58462000        -1.70210000        +7.92130000
O        +1.09519000        -2.89439000        +6.07229000
O        +1.58601000        +0.47267000        +6.03440000
O        +1.05852000        +1.76063000        +7.80795000
C        +2.88266000        +1.09087000        +5.97959000
C        +2.87133000        -2.34242000        +7.97792000
C        -1.69503000        -2.02650000        +6.84765000
C        -2.89135000        -1.31090000        +6.92032000
C        -2.90496000        +0.07221000        +7.04251000
C        -1.72344000        +0.81370000        +7.10127000
H        +2.78652000        +2.16955000        +5.84853000
H        +2.75595000        -3.42353000        +8.06872000
H        -3.85537000        +0.59291000        +7.09027000
H        +3.43815000        +0.89059000        +6.89773000
H        +3.38001000        +0.64235000        +5.12250000
H        +3.35912000        -1.93315000        +8.85967000
H        +3.44706000        -2.11968000        +7.07776000
H        -3.83075000        -1.85245000        +6.88329000
C        -1.79143000        +2.31712000        +7.22156000
H        -1.19397000        +2.81318000        +6.45252000
H        -1.40686000        +2.65393000        +8.18601000
H        -2.82394000        +2.65589000        +7.11955000
H        -1.69061000        -3.05427000        +6.75442000
C        -0.54444000        -0.68370000        -0.06689000
C        -0.55709000        +0.71878000        +0.05493000
C        +0.74969000        -1.43776000        -0.09374000
C        +0.72843000        +1.48436000        +0.06598000
O        +1.53645000        -1.09176000        +0.94813000
O        +1.04702000        -2.28405000        -0.90088000
O        +1.53784000        +1.08301000        -0.93877000
O        +1.01035000        +2.37097000        +0.83478000
C        +2.83449000        +1.70121000        -0.99358000
C        +2.82316000        -1.73208000        +1.00475000
C        -1.74320000        -1.41616000        -0.12552000
C        -2.93952000        -0.70056000        -0.05285000
C        -2.95313000        +0.68255000        +0.06934000
C        -1.77161000        +1.42404000        +0.12810000
H        +2.73835000        +2.77989000        -1.12464000
H        +2.70778000        -2.81319000        +1.09555000
H        -3.90354000        +1.20325000        +0.11710000
H        +3.38998000        +1.50093000        -0.07544000
H        +3.33184000        +1.25269000        -1.85067000
H        +3.31095000        -1.32281000        +1.88650000
H        +3.39889000        -1.50934000        +0.10459000
H        -3.87892000        -1.24211000        -0.08988000
C        -1.83960000        +2.92746000        +0.24839000
H        -1.24214000        +3.42352000        -0.52065000
H        -1.45503000        +3.26427000        +1.21284000
H        -2.87211000        +3.26623000        +0.14638000
H        -1.73878000        -2.44393000        -0.21875000
