35
1111.pdb
C          0.49500        0.88500        0.65000
C          0.05700       -0.61700        0.71100
C         -0.58500        1.81300        0.10800
C         -1.19800       -0.94100       -0.06900
O         -0.27060        2.13665       -1.17286
O         -1.60101        2.17567        0.65155
O         -1.10527       -0.45506       -1.32857
O         -2.19235       -1.48469        0.36242
C         -2.28466       -0.62134       -2.13377
C         -1.11622        3.13343       -1.77071
C          1.85200        0.79200       -0.12800
C          2.90400        0.25000        0.88100
C          2.48200       -1.23700        1.01600
C          1.29200       -1.31200        0.02400
O          1.64800       -0.35400       -0.97700
H          0.67100        1.23900        1.67200
H         -0.07700       -0.97200        1.73400
H         -3.12725       -0.07925       -1.69402
H         -1.04113        4.06670       -1.20521
H          3.90200        0.33800        0.44300
H          2.90500        0.79600        1.83000
H          3.27900       -1.91100        0.68700
H          2.19900       -1.52600        2.03300
H         -2.03249       -0.21189       -3.11201
H         -2.54917       -1.67886       -2.21236
H         -2.15834        2.80258       -1.78564
H         -0.73967        3.26664       -2.78557
C          1.04300       -2.66800       -0.60500
H          1.96800       -3.03900       -1.05600
H          0.70300       -3.38600        0.14700
H          0.28600       -2.59500       -1.39100
C          2.31800        1.97700       -0.94700
H          3.30300        1.75600       -1.37000
H          1.61600        2.19500       -1.75100
H          2.39800        2.86900       -0.31700
