35
1111.pdb
C          0.49500        0.88500        0.65000
C          0.05700       -0.61700        0.71100
C         -0.58500        1.81300        0.10800
C         -1.19800       -0.94100       -0.06900
O         -1.38401        2.19108        1.13894
O         -0.71633        2.23012       -1.01807
O         -0.95634       -0.86416       -1.39826
O         -2.29583       -1.16342        0.39548
C         -2.10644       -1.05936       -2.23857
C         -2.54632        2.94652        0.75889
C          1.85200        0.79200       -0.12800
C          2.90400        0.25000        0.88100
C          2.48200       -1.23700        1.01600
C          1.29200       -1.31200        0.02400
O          1.64800       -0.35400       -0.97700
H          0.67100        1.23900        1.67200
H         -0.07700       -0.97200        1.73400
H         -2.85265       -0.28119       -2.05195
H         -3.17957        2.34211        0.10306
H          3.90200        0.33800        0.44300
H          2.90500        0.79600        1.83000
H          3.27900       -1.91100        0.68700
H          2.19900       -1.52600        2.03300
H         -1.73600       -0.99933       -3.26197
H         -2.56009       -2.03505       -2.04685
H         -2.26127        3.86564        0.23961
H         -3.06459        3.17536        1.69083
C          1.04300       -2.66800       -0.60500
H          1.96800       -3.03900       -1.05600
H          0.70300       -3.38600        0.14700
H          0.28600       -2.59500       -1.39100
C          2.31800        1.97700       -0.94700
H          3.30300        1.75600       -1.37000
H          1.61600        2.19500       -1.75100
H          2.39800        2.86900       -0.31700
