35
1111.pdb
C          0.49500        0.88500        0.65000
C          0.05700       -0.61700        0.71100
C         -0.58500        1.81300        0.10800
C         -1.19800       -0.94100       -0.06900
O         -1.31567        2.27910        1.15349
O         -0.76469        2.16477       -1.03360
O         -2.27939       -0.89479        0.74322
O         -1.25469       -1.27511       -1.23330
C         -3.52003       -1.28109        0.12797
C         -2.47414        3.04751        0.78800
C          1.85200        0.79200       -0.12800
C          2.90400        0.25000        0.88100
C          2.48200       -1.23700        1.01600
C          1.29200       -1.31200        0.02400
O          1.64800       -0.35400       -0.97700
H          0.67100        1.23900        1.67200
H         -0.07700       -0.97200        1.73400
H         -3.47366       -2.32237       -0.20488
H         -3.15938        2.42525        0.20520
H          3.90200        0.33800        0.44300
H          2.90500        0.79600        1.83000
H          3.27900       -1.91100        0.68700
H          2.19900       -1.52600        2.03300
H         -4.28102       -1.15727        0.89851
H         -3.73442       -0.64519       -0.73469
H         -2.19071        3.92347        0.19804
H         -2.93435        3.34954        1.72953
C          1.04300       -2.66800       -0.60500
H          1.96800       -3.03900       -1.05600
H          0.70300       -3.38600        0.14700
H          0.28600       -2.59500       -1.39100
C          2.31800        1.97700       -0.94700
H          3.30300        1.75600       -1.37000
H          1.61600        2.19500       -1.75100
H          2.39800        2.86900       -0.31700
