35
1111.pdb
C          0.49500        0.88500        0.65000
C          0.05700       -0.61700        0.71100
C         -0.58500        1.81300        0.10800
C         -1.19800       -0.94100       -0.06900
O         -0.68605        1.61848       -1.23220
O         -1.30586        2.56147        0.72397
O         -1.55235        0.11020       -0.84402
O         -1.85966       -1.95314        0.02172
C         -2.78896       -0.05029       -1.55956
C         -1.55794        2.53605       -1.91335
C          1.85200        0.79200       -0.12800
C          2.90400        0.25000        0.88100
C          2.48200       -1.23700        1.01600
C          1.29200       -1.31200        0.02400
O          1.64800       -0.35400       -0.97700
H          0.67100        1.23900        1.67200
H         -0.07700       -0.97200        1.73400
H         -3.62268       -0.16664       -0.86058
H         -1.18452        3.55699       -1.79222
H          3.90200        0.33800        0.44300
H          2.90500        0.79600        1.83000
H          3.27900       -1.91100        0.68700
H          2.19900       -1.52600        2.03300
H         -2.90645        0.85820       -2.15033
H         -2.74633       -0.93054       -2.20597
H         -2.57536        2.47386       -1.51750
H         -1.53386        2.23905       -2.96249
C          1.04300       -2.66800       -0.60500
H          1.96800       -3.03900       -1.05600
H          0.70300       -3.38600        0.14700
H          0.28600       -2.59500       -1.39100
C          2.31800        1.97700       -0.94700
H          3.30300        1.75600       -1.37000
H          1.61600        2.19500       -1.75100
H          2.39800        2.86900       -0.31700
