35
1111.pdb
C          0.49500        0.88500        0.65000
C          0.05700       -0.61700        0.71100
C         -0.58500        1.81300        0.10800
C         -1.19800       -0.94100       -0.06900
O         -0.62340        2.92711        0.88355
O         -1.27049        1.66813       -0.87607
O         -0.88342       -1.29464       -1.33677
O         -2.33884       -0.83389        0.32780
C         -2.00855       -1.53214       -2.19970
C         -1.70134        3.83185        0.59102
C          1.85200        0.79200       -0.12800
C          2.90400        0.25000        0.88100
C          2.48200       -1.23700        1.01600
C          1.29200       -1.31200        0.02400
O          1.64800       -0.35400       -0.97700
H          0.67100        1.23900        1.67200
H         -0.07700       -0.97200        1.73400
H         -2.60401       -0.62095       -2.31087
H         -2.65861        3.32812        0.75322
H          3.90200        0.33800        0.44300
H          2.90500        0.79600        1.83000
H          3.27900       -1.91100        0.68700
H          2.19900       -1.52600        2.03300
H         -1.58527       -1.83411       -3.15773
H         -2.64528       -2.32086       -1.79105
H         -1.64730        4.18103       -0.44380
H         -1.58166        4.66436        1.28534
C          1.04300       -2.66800       -0.60500
H          1.96800       -3.03900       -1.05600
H          0.70300       -3.38600        0.14700
H          0.28600       -2.59500       -1.39100
C          2.31800        1.97700       -0.94700
H          3.30300        1.75600       -1.37000
H          1.61600        2.19500       -1.75100
H          2.39800        2.86900       -0.31700
