30

 C    3.211730000000   -1.587560000000    0.187480000000
 H    3.115650000000   -2.228480000000   -0.690380000000
 H    2.965260000000   -2.214590000000    1.046210000000
 H    4.250510000000   -1.263550000000    0.275560000000
 C    0.236820000000   -1.783070000000   -0.071440000000
 O    0.803870000000   -2.851600000000   -0.021580000000
 O   -1.105530000000   -1.696540000000   -0.179470000000
 C   -1.827030000000   -2.935880000000   -0.261020000000
 H   -2.867340000000   -2.653550000000   -0.407320000000
 H   -1.708020000000   -3.507040000000    0.661220000000
 H   -1.469820000000   -3.530990000000   -1.102140000000
 C   -0.042670000000    3.279510000000   -0.189280000000
 H   -0.807300000000    3.330330000000    0.591330000000
 H   -0.556030000000    3.337280000000   -1.152740000000
 H    0.598750000000    4.156320000000   -0.090090000000
 C   -1.344990000000    0.774760000000   -0.282780000000
 O   -1.912000000000    0.878640000000   -1.341360000000
 O   -1.967200000000    0.794150000000    0.912010000000
 C   -3.405140000000    0.823820000000    0.868320000000
 H   -3.757130000000    1.712500000000    0.342150000000
 H   -3.727080000000    0.838690000000    1.907240000000
 H   -3.784350000000   -0.065480000000    0.361780000000
 C    0.901140000000   -0.442580000000   -0.028010000000
 C    0.152630000000    0.750620000000   -0.114040000000
 C    2.310530000000   -0.379230000000    0.096340000000
 C    2.902110000000    0.884990000000    0.136310000000
 C    2.154160000000    2.051200000000    0.050670000000
 C    0.767380000000    2.009210000000   -0.081020000000
 H    2.655230000000    3.012810000000    0.085880000000
 H    3.979600000000    0.952410000000    0.236490000000
