30

 C    0.728430000000    1.484360000000    0.065980000000
 O    1.010350000000    2.370970000000    0.834780000000
 O    1.537840000000    1.083010000000   -0.938770000000
 C    2.834490000000    1.701210000000   -0.993580000000
 H    2.738350000000    2.779890000000   -1.124640000000
 H    3.389980000000    1.500930000000   -0.075440000000
 H    3.331840000000    1.252690000000   -1.850670000000
 C    0.749690000000   -1.437760000000   -0.093740000000
 O    1.047020000000   -2.284050000000   -0.900880000000
 O    1.536450000000   -1.091760000000    0.948130000000
 C    2.823160000000   -1.732080000000    1.004750000000
 H    3.398890000000   -1.509340000000    0.104590000000
 H    3.310950000000   -1.322810000000    1.886500000000
 H    2.707780000000   -2.813190000000    1.095550000000
 C   -1.839600000000    2.927460000000    0.248390000000
 H   -1.455030000000    3.264270000000    1.212840000000
 H   -1.242140000000    3.423520000000   -0.520650000000
 H   -2.872110000000    3.266230000000    0.146380000000
 C   -1.781030000000   -2.922260000000   -0.245900000000
 H   -2.805720000000   -3.281750000000   -0.136270000000
 H   -1.397520000000   -3.252230000000   -1.213230000000
 H   -1.169580000000   -3.407770000000    0.519260000000
 C   -0.544440000000   -0.683700000000   -0.066890000000
 C   -0.557090000000    0.718780000000    0.054930000000
 C   -1.743200000000   -1.416160000000   -0.125520000000
 C   -2.939520000000   -0.700560000000   -0.052850000000
 C   -2.953130000000    0.682550000000    0.069340000000
 C   -1.771610000000    1.424040000000    0.128100000000
 H   -3.903540000000    1.203250000000    0.117100000000
 H   -3.878920000000   -1.242110000000   -0.089880000000
